* NGSPICE file created from semi_cpu_top.ext - technology: sky130A

* Black-box entry subcircuit for sky130_fd_sc_hd__tapvpwrvgnd_1 abstract view
.subckt sky130_fd_sc_hd__tapvpwrvgnd_1 VGND VPWR
.ends

* Black-box entry subcircuit for sky130_ef_sc_hd__decap_12 abstract view
.subckt sky130_ef_sc_hd__decap_12 VPWR VGND VPB VNB
.ends

* Black-box entry subcircuit for sky130_fd_sc_hd__fill_1 abstract view
.subckt sky130_fd_sc_hd__fill_1 VGND VNB VPB VPWR
.ends

* Black-box entry subcircuit for sky130_fd_sc_hd__fill_2 abstract view
.subckt sky130_fd_sc_hd__fill_2 VGND VNB VPB VPWR
.ends

* Black-box entry subcircuit for sky130_fd_sc_hd__decap_6 abstract view
.subckt sky130_fd_sc_hd__decap_6 VGND VNB VPB VPWR
.ends

* Black-box entry subcircuit for sky130_fd_sc_hd__decap_4 abstract view
.subckt sky130_fd_sc_hd__decap_4 VGND VNB VPB VPWR
.ends

* Black-box entry subcircuit for sky130_fd_sc_hd__xor2_1 abstract view
.subckt sky130_fd_sc_hd__xor2_1 A B VGND VNB VPB VPWR X
.ends

* Black-box entry subcircuit for sky130_fd_sc_hd__decap_8 abstract view
.subckt sky130_fd_sc_hd__decap_8 VGND VNB VPB VPWR
.ends

* Black-box entry subcircuit for sky130_fd_sc_hd__and3_1 abstract view
.subckt sky130_fd_sc_hd__and3_1 A B C VGND VNB VPB VPWR X
.ends

* Black-box entry subcircuit for sky130_fd_sc_hd__diode_2 abstract view
.subckt sky130_fd_sc_hd__diode_2 DIODE VGND VNB VPB VPWR
.ends

* Black-box entry subcircuit for sky130_fd_sc_hd__buf_1 abstract view
.subckt sky130_fd_sc_hd__buf_1 A VGND VNB VPB VPWR X
.ends

* Black-box entry subcircuit for sky130_fd_sc_hd__decap_3 abstract view
.subckt sky130_fd_sc_hd__decap_3 VGND VNB VPB VPWR
.ends

* Black-box entry subcircuit for sky130_fd_sc_hd__clkbuf_1 abstract view
.subckt sky130_fd_sc_hd__clkbuf_1 A VGND VNB VPB VPWR X
.ends

* Black-box entry subcircuit for sky130_fd_sc_hd__xor2_2 abstract view
.subckt sky130_fd_sc_hd__xor2_2 A B VGND VNB VPB VPWR X
.ends

* Black-box entry subcircuit for sky130_fd_sc_hd__dfxtp_4 abstract view
.subckt sky130_fd_sc_hd__dfxtp_4 CLK D VGND VNB VPB VPWR Q
.ends

* Black-box entry subcircuit for sky130_fd_sc_hd__and2b_1 abstract view
.subckt sky130_fd_sc_hd__and2b_1 A_N B VGND VNB VPB VPWR X
.ends

* Black-box entry subcircuit for sky130_fd_sc_hd__inv_2 abstract view
.subckt sky130_fd_sc_hd__inv_2 A VGND VNB VPB VPWR Y
.ends

* Black-box entry subcircuit for sky130_fd_sc_hd__a41o_1 abstract view
.subckt sky130_fd_sc_hd__a41o_1 A1 A2 A3 A4 B1 VGND VNB VPB VPWR X
.ends

* Black-box entry subcircuit for sky130_fd_sc_hd__nand3_1 abstract view
.subckt sky130_fd_sc_hd__nand3_1 A B C VGND VNB VPB VPWR Y
.ends

* Black-box entry subcircuit for sky130_fd_sc_hd__and4_2 abstract view
.subckt sky130_fd_sc_hd__and4_2 A B C D VGND VNB VPB VPWR X
.ends

* Black-box entry subcircuit for sky130_fd_sc_hd__nand3_2 abstract view
.subckt sky130_fd_sc_hd__nand3_2 A B C VGND VNB VPB VPWR Y
.ends

* Black-box entry subcircuit for sky130_fd_sc_hd__clkinvlp_2 abstract view
.subckt sky130_fd_sc_hd__clkinvlp_2 A VGND VNB VPB VPWR Y
.ends

* Black-box entry subcircuit for sky130_fd_sc_hd__and2_1 abstract view
.subckt sky130_fd_sc_hd__and2_1 A B VGND VNB VPB VPWR X
.ends

* Black-box entry subcircuit for sky130_fd_sc_hd__or3b_1 abstract view
.subckt sky130_fd_sc_hd__or3b_1 A B C_N VGND VNB VPB VPWR X
.ends

* Black-box entry subcircuit for sky130_fd_sc_hd__clkbuf_16 abstract view
.subckt sky130_fd_sc_hd__clkbuf_16 A VGND VNB VPB VPWR X
.ends

* Black-box entry subcircuit for sky130_fd_sc_hd__buf_2 abstract view
.subckt sky130_fd_sc_hd__buf_2 A VGND VNB VPB VPWR X
.ends

* Black-box entry subcircuit for sky130_fd_sc_hd__dfxtp_2 abstract view
.subckt sky130_fd_sc_hd__dfxtp_2 CLK D VGND VNB VPB VPWR Q
.ends

* Black-box entry subcircuit for sky130_fd_sc_hd__dfxtp_1 abstract view
.subckt sky130_fd_sc_hd__dfxtp_1 CLK D VGND VNB VPB VPWR Q
.ends

* Black-box entry subcircuit for sky130_fd_sc_hd__nor2_1 abstract view
.subckt sky130_fd_sc_hd__nor2_1 A B VGND VNB VPB VPWR Y
.ends

* Black-box entry subcircuit for sky130_fd_sc_hd__a21oi_2 abstract view
.subckt sky130_fd_sc_hd__a21oi_2 A1 A2 B1 VGND VNB VPB VPWR Y
.ends

* Black-box entry subcircuit for sky130_fd_sc_hd__and3_2 abstract view
.subckt sky130_fd_sc_hd__and3_2 A B C VGND VNB VPB VPWR X
.ends

* Black-box entry subcircuit for sky130_fd_sc_hd__conb_1 abstract view
.subckt sky130_fd_sc_hd__conb_1 VGND VNB VPB VPWR HI LO
.ends

* Black-box entry subcircuit for sky130_fd_sc_hd__or2_2 abstract view
.subckt sky130_fd_sc_hd__or2_2 A B VGND VNB VPB VPWR X
.ends

* Black-box entry subcircuit for sky130_fd_sc_hd__nor2_2 abstract view
.subckt sky130_fd_sc_hd__nor2_2 A B VGND VNB VPB VPWR Y
.ends

* Black-box entry subcircuit for sky130_fd_sc_hd__nand2_2 abstract view
.subckt sky130_fd_sc_hd__nand2_2 A B VGND VNB VPB VPWR Y
.ends

* Black-box entry subcircuit for sky130_fd_sc_hd__buf_4 abstract view
.subckt sky130_fd_sc_hd__buf_4 A VGND VNB VPB VPWR X
.ends

* Black-box entry subcircuit for sky130_fd_sc_hd__or3b_2 abstract view
.subckt sky130_fd_sc_hd__or3b_2 A B C_N VGND VNB VPB VPWR X
.ends

* Black-box entry subcircuit for sky130_fd_sc_hd__and4_1 abstract view
.subckt sky130_fd_sc_hd__and4_1 A B C D VGND VNB VPB VPWR X
.ends

* Black-box entry subcircuit for sky130_fd_sc_hd__or3_2 abstract view
.subckt sky130_fd_sc_hd__or3_2 A B C VGND VNB VPB VPWR X
.ends

* Black-box entry subcircuit for sky130_fd_sc_hd__a21oi_4 abstract view
.subckt sky130_fd_sc_hd__a21oi_4 A1 A2 B1 VGND VNB VPB VPWR Y
.ends

* Black-box entry subcircuit for sky130_fd_sc_hd__clkbuf_2 abstract view
.subckt sky130_fd_sc_hd__clkbuf_2 A VGND VNB VPB VPWR X
.ends

* Black-box entry subcircuit for sky130_fd_sc_hd__or3_1 abstract view
.subckt sky130_fd_sc_hd__or3_1 A B C VGND VNB VPB VPWR X
.ends

* Black-box entry subcircuit for sky130_fd_sc_hd__nand2_1 abstract view
.subckt sky130_fd_sc_hd__nand2_1 A B VGND VNB VPB VPWR Y
.ends

.subckt semi_cpu_top VGND VPWR an[0] an[1] an[2] an[3] an[4] an[5] an[6] an[7] clk
+ control reset seg[0] seg[1] seg[2] seg[3] seg[4] seg[5] seg[6]
XTAP_TAPCELL_ROW_37_401 VGND VPWR sky130_fd_sc_hd__tapvpwrvgnd_1
XFILLER_0_27_93 VPWR VGND VPWR VGND sky130_ef_sc_hd__decap_12
XFILLER_0_57_391 VGND VGND VPWR VPWR sky130_fd_sc_hd__fill_1
XFILLER_0_43_81 VPWR VGND VPWR VGND sky130_ef_sc_hd__decap_12
XFILLER_0_7_81 VPWR VGND VPWR VGND sky130_ef_sc_hd__decap_12
XFILLER_0_55_317 VPWR VGND VPWR VGND sky130_ef_sc_hd__decap_12
XFILLER_0_63_361 VPWR VGND VPWR VGND sky130_ef_sc_hd__decap_12
XFILLER_0_23_225 VGND VGND VPWR VPWR sky130_fd_sc_hd__fill_2
XFILLER_0_48_15 VPWR VGND VPWR VGND sky130_ef_sc_hd__decap_12
XFILLER_0_64_69 VPWR VGND VPWR VGND sky130_ef_sc_hd__decap_12
XFILLER_0_3_39 VPWR VGND VPWR VGND sky130_ef_sc_hd__decap_12
XFILLER_0_58_177 VPWR VGND VPWR VGND sky130_ef_sc_hd__decap_12
XFILLER_0_58_133 VGND VGND VPWR VPWR sky130_fd_sc_hd__decap_6
XFILLER_0_39_391 VGND VGND VPWR VPWR sky130_fd_sc_hd__fill_1
XFILLER_0_13_51 VGND VGND VPWR VPWR sky130_fd_sc_hd__decap_4
XFILLER_0_38_70 VPWR VGND VPWR VGND sky130_ef_sc_hd__decap_12
XFILLER_0_49_111 VGND VGND VPWR VPWR sky130_fd_sc_hd__fill_1
XFILLER_0_64_169 VPWR VGND VPWR VGND sky130_ef_sc_hd__decap_12
XFILLER_0_64_125 VPWR VGND VPWR VGND sky130_ef_sc_hd__decap_12
XFILLER_0_52_309 VPWR VGND VPWR VGND sky130_ef_sc_hd__decap_12
XFILLER_0_45_361 VPWR VGND VPWR VGND sky130_ef_sc_hd__decap_12
XTAP_TAPCELL_ROW_40_418 VGND VPWR sky130_fd_sc_hd__tapvpwrvgnd_1
XFILLER_0_37_317 VPWR VGND VPWR VGND sky130_ef_sc_hd__decap_12
XTAP_TAPCELL_ROW_5_173 VGND VPWR sky130_fd_sc_hd__tapvpwrvgnd_1
XFILLER_0_18_29 VPWR VGND VPWR VGND sky130_ef_sc_hd__decap_12
XFILLER_0_55_125 VPWR VGND VPWR VGND sky130_ef_sc_hd__decap_12
XFILLER_0_50_27 VGND VGND VPWR VPWR sky130_fd_sc_hd__fill_1
XFILLER_0_55_169 VPWR VGND VPWR VGND sky130_ef_sc_hd__decap_12
XFILLER_0_51_331 VGND VGND VPWR VPWR sky130_fd_sc_hd__decap_4
XFILLER_0_11_217 VGND VGND VPWR VPWR sky130_fd_sc_hd__decap_6
XFILLER_0_59_69 VPWR VGND VPWR VGND sky130_ef_sc_hd__decap_12
X_66_ display_inst.clk_div\[8\] _27_ VGND VGND VPWR VPWR _08_ sky130_fd_sc_hd__xor2_1
XTAP_TAPCELL_ROW_19_275 VGND VPWR sky130_fd_sc_hd__tapvpwrvgnd_1
XTAP_TAPCELL_ROW_62_576 VGND VPWR sky130_fd_sc_hd__tapvpwrvgnd_1
XFILLER_0_34_309 VPWR VGND VPWR VGND sky130_ef_sc_hd__decap_12
XFILLER_0_6_233 VPWR VGND VPWR VGND sky130_ef_sc_hd__decap_12
XFILLER_0_6_277 VPWR VGND VPWR VGND sky130_ef_sc_hd__decap_12
XFILLER_0_19_317 VPWR VGND VPWR VGND sky130_ef_sc_hd__decap_12
XFILLER_0_24_83 VGND VGND VPWR VPWR sky130_fd_sc_hd__fill_1
XFILLER_0_27_361 VPWR VGND VPWR VGND sky130_ef_sc_hd__decap_12
XFILLER_0_42_353 VGND VGND VPWR VPWR sky130_fd_sc_hd__decap_8
XTAP_TAPCELL_ROW_2_154 VGND VPWR sky130_fd_sc_hd__tapvpwrvgnd_1
XTAP_TAPCELL_ROW_53_510 VGND VPWR sky130_fd_sc_hd__tapvpwrvgnd_1
XFILLER_0_37_125 VPWR VGND VPWR VGND sky130_ef_sc_hd__decap_12
XFILLER_0_52_139 VGND VGND VPWR VPWR sky130_fd_sc_hd__fill_1
XFILLER_0_37_169 VPWR VGND VPWR VGND sky130_ef_sc_hd__decap_12
XFILLER_0_29_39 VPWR VGND VPWR VGND sky130_ef_sc_hd__decap_12
XFILLER_0_61_15 VPWR VGND VPWR VGND sky130_ef_sc_hd__decap_12
XFILLER_0_45_27 VPWR VGND VPWR VGND sky130_ef_sc_hd__decap_12
XFILLER_0_0_29 VPWR VGND VPWR VGND sky130_ef_sc_hd__decap_12
XFILLER_0_56_401 VGND VGND VPWR VPWR sky130_fd_sc_hd__decap_6
XFILLER_0_9_27 VPWR VGND VPWR VGND sky130_ef_sc_hd__decap_12
XFILLER_0_16_309 VPWR VGND VPWR VGND sky130_ef_sc_hd__decap_12
XFILLER_0_51_161 VGND VGND VPWR VPWR sky130_fd_sc_hd__decap_6
XFILLER_0_3_225 VPWR VGND VPWR VGND sky130_ef_sc_hd__decap_12
XFILLER_0_10_41 VPWR VGND VPWR VGND sky130_ef_sc_hd__decap_12
XFILLER_0_10_85 VPWR VGND VPWR VGND sky130_ef_sc_hd__decap_12
XFILLER_0_59_261 VPWR VGND VPWR VGND sky130_ef_sc_hd__decap_12
XFILLER_0_35_93 VPWR VGND VPWR VGND sky130_ef_sc_hd__decap_12
X_49_ display_inst.clk_div\[0\] display_inst.clk_div\[1\] display_inst.clk_div\[2\]
+ VGND VGND VPWR VPWR _19_ sky130_fd_sc_hd__and3_1
XFILLER_0_19_125 VPWR VGND VPWR VGND sky130_ef_sc_hd__decap_12
XFILLER_0_51_81 VPWR VGND VPWR VGND sky130_ef_sc_hd__decap_12
XFILLER_0_30_301 VGND VGND VPWR VPWR sky130_fd_sc_hd__decap_6
XFILLER_0_19_169 VPWR VGND VPWR VGND sky130_ef_sc_hd__decap_12
XFILLER_0_30_389 VPWR VGND VPWR VGND sky130_ef_sc_hd__decap_12
XFILLER_0_30_345 VPWR VGND VPWR VGND sky130_ef_sc_hd__decap_12
XFILLER_0_38_401 VGND VGND VPWR VPWR sky130_fd_sc_hd__decap_6
XFILLER_0_40_109 VPWR VGND VPWR VGND sky130_ef_sc_hd__decap_12
XFILLER_0_33_161 VGND VGND VPWR VPWR sky130_fd_sc_hd__decap_6
XFILLER_0_56_15 VPWR VGND VPWR VGND sky130_ef_sc_hd__decap_12
XFILLER_0_48_209 VPWR VGND VPWR VGND sky130_ef_sc_hd__decap_12
XFILLER_0_56_253 VPWR VGND VPWR VGND sky130_ef_sc_hd__decap_12
XFILLER_0_12_301 VGND VGND VPWR VPWR sky130_fd_sc_hd__decap_6
XFILLER_0_16_139 VGND VGND VPWR VPWR sky130_fd_sc_hd__fill_1
XFILLER_0_21_51 VGND VGND VPWR VPWR sky130_fd_sc_hd__decap_4
XFILLER_0_12_345 VPWR VGND VPWR VGND sky130_ef_sc_hd__decap_12
XFILLER_0_12_389 VPWR VGND VPWR VGND sky130_ef_sc_hd__decap_12
XFILLER_0_34_3 VPWR VGND VPWR VGND sky130_ef_sc_hd__decap_12
XTAP_TAPCELL_ROW_27_329 VGND VPWR sky130_fd_sc_hd__tapvpwrvgnd_1
XTAP_TAPCELL_ROW_35_384 VGND VPWR sky130_fd_sc_hd__tapvpwrvgnd_1
XTAP_TAPCELL_ROW_10_207 VGND VPWR sky130_fd_sc_hd__tapvpwrvgnd_1
XFILLER_0_62_289 VPWR VGND VPWR VGND sky130_ef_sc_hd__decap_12
XFILLER_0_62_245 VGND VGND VPWR VPWR sky130_fd_sc_hd__decap_6
XFILLER_0_7_361 VPWR VGND VPWR VGND sky130_ef_sc_hd__decap_12
XFILLER_0_15_161 VGND VGND VPWR VPWR sky130_fd_sc_hd__decap_6
XFILLER_0_22_109 VPWR VGND VPWR VGND sky130_ef_sc_hd__decap_12
XFILLER_0_30_197 VPWR VGND VPWR VGND sky130_ef_sc_hd__decap_12
XFILLER_0_26_29 VPWR VGND VPWR VGND sky130_ef_sc_hd__decap_12
XFILLER_0_53_223 VGND VGND VPWR VPWR sky130_fd_sc_hd__fill_1
XFILLER_0_38_253 VPWR VGND VPWR VGND sky130_ef_sc_hd__decap_12
XANTENNA_5 _24_ VGND VGND VPWR VPWR sky130_fd_sc_hd__diode_2
XTAP_TAPCELL_ROW_32_365 VGND VPWR sky130_fd_sc_hd__tapvpwrvgnd_1
XFILLER_0_44_289 VGND VGND VPWR VPWR sky130_fd_sc_hd__decap_6
XFILLER_0_44_245 VGND VGND VPWR VPWR sky130_fd_sc_hd__decap_6
XFILLER_0_12_153 VPWR VGND VPWR VGND sky130_ef_sc_hd__decap_12
XFILLER_0_12_197 VPWR VGND VPWR VGND sky130_ef_sc_hd__decap_12
XFILLER_0_35_278 VGND VGND VPWR VPWR sky130_fd_sc_hd__fill_2
XFILLER_0_35_223 VGND VGND VPWR VPWR sky130_fd_sc_hd__fill_1
Xoutput7 net7 VGND VGND VPWR VPWR an[6] sky130_fd_sc_hd__buf_1
XFILLER_0_53_27 VPWR VGND VPWR VGND sky130_ef_sc_hd__decap_12
XFILLER_0_37_39 VPWR VGND VPWR VGND sky130_ef_sc_hd__decap_12
XFILLER_0_41_237 VPWR VGND VPWR VGND sky130_ef_sc_hd__decap_12
XFILLER_0_26_245 VGND VGND VPWR VPWR sky130_fd_sc_hd__decap_6
XFILLER_0_49_337 VPWR VGND VPWR VGND sky130_ef_sc_hd__decap_12
XTAP_TAPCELL_ROW_37_402 VGND VPWR sky130_fd_sc_hd__tapvpwrvgnd_1
XFILLER_0_43_93 VPWR VGND VPWR VGND sky130_ef_sc_hd__decap_12
XFILLER_0_17_223 VGND VGND VPWR VPWR sky130_fd_sc_hd__fill_1
XFILLER_0_7_93 VPWR VGND VPWR VGND sky130_ef_sc_hd__decap_12
XFILLER_0_55_329 VGND VGND VPWR VPWR sky130_fd_sc_hd__decap_6
XTAP_TAPCELL_ROW_43_438 VGND VPWR sky130_fd_sc_hd__tapvpwrvgnd_1
XFILLER_0_63_373 VPWR VGND VPWR VGND sky130_ef_sc_hd__decap_12
XFILLER_0_2_109 VPWR VGND VPWR VGND sky130_ef_sc_hd__decap_12
XFILLER_0_48_27 VGND VGND VPWR VPWR sky130_fd_sc_hd__fill_1
XFILLER_0_31_281 VPWR VGND VPWR VGND sky130_ef_sc_hd__decap_12
XTAP_TAPCELL_ROW_8_193 VGND VPWR sky130_fd_sc_hd__tapvpwrvgnd_1
XFILLER_0_64_15 VPWR VGND VPWR VGND sky130_ef_sc_hd__decap_12
XFILLER_0_58_189 VGND VGND VPWR VPWR sky130_fd_sc_hd__decap_6
XFILLER_0_46_307 VGND VGND VPWR VPWR sky130_fd_sc_hd__fill_1
XFILLER_0_1_120 VPWR VGND VPWR VGND sky130_ef_sc_hd__decap_12
XFILLER_0_38_82 VGND VGND VPWR VPWR sky130_fd_sc_hd__fill_2
XFILLER_0_49_167 VGND VGND VPWR VPWR sky130_fd_sc_hd__fill_1
XFILLER_0_37_329 VGND VGND VPWR VPWR sky130_fd_sc_hd__decap_6
XPHY_EDGE_ROW_19_Left_84 VGND VGND VPWR VPWR sky130_fd_sc_hd__decap_3
XFILLER_0_64_137 VGND VGND VPWR VPWR sky130_fd_sc_hd__decap_3
XFILLER_0_60_365 VPWR VGND VPWR VGND sky130_ef_sc_hd__decap_12
XFILLER_0_60_321 VPWR VGND VPWR VGND sky130_ef_sc_hd__decap_12
XFILLER_0_45_373 VPWR VGND VPWR VGND sky130_ef_sc_hd__decap_12
XTAP_TAPCELL_ROW_40_419 VGND VPWR sky130_fd_sc_hd__tapvpwrvgnd_1
XFILLER_0_13_281 VPWR VGND VPWR VGND sky130_ef_sc_hd__decap_12
XTAP_TAPCELL_ROW_56_530 VGND VPWR sky130_fd_sc_hd__tapvpwrvgnd_1
XFILLER_0_34_29 VPWR VGND VPWR VGND sky130_ef_sc_hd__decap_12
XTAP_TAPCELL_ROW_5_174 VGND VPWR sky130_fd_sc_hd__tapvpwrvgnd_1
XFILLER_0_55_137 VPWR VGND VPWR VGND sky130_ef_sc_hd__decap_12
XFILLER_0_63_181 VPWR VGND VPWR VGND sky130_ef_sc_hd__decap_12
XFILLER_0_59_15 VPWR VGND VPWR VGND sky130_ef_sc_hd__decap_12
XFILLER_0_19_329 VGND VGND VPWR VPWR sky130_fd_sc_hd__decap_6
XTAP_TAPCELL_ROW_19_276 VGND VPWR sky130_fd_sc_hd__tapvpwrvgnd_1
X_65_ _29_ VGND VGND VPWR VPWR _07_ sky130_fd_sc_hd__clkbuf_1
XTAP_TAPCELL_ROW_62_577 VGND VPWR sky130_fd_sc_hd__tapvpwrvgnd_1
XFILLER_0_42_365 VPWR VGND VPWR VGND sky130_ef_sc_hd__decap_12
XFILLER_0_42_321 VGND VGND VPWR VPWR sky130_fd_sc_hd__decap_6
XFILLER_0_40_83 VGND VGND VPWR VPWR sky130_fd_sc_hd__fill_1
XFILLER_0_6_245 VGND VGND VPWR VPWR sky130_fd_sc_hd__decap_6
XFILLER_0_6_289 VPWR VGND VPWR VGND sky130_ef_sc_hd__decap_12
XFILLER_0_27_373 VPWR VGND VPWR VGND sky130_ef_sc_hd__decap_12
XFILLER_0_64_3 VPWR VGND VPWR VGND sky130_ef_sc_hd__decap_12
XFILLER_0_49_81 VPWR VGND VPWR VGND sky130_ef_sc_hd__decap_12
XFILLER_0_10_251 VGND VGND VPWR VPWR sky130_fd_sc_hd__fill_1
XPHY_EDGE_ROW_12_Right_12 VGND VGND VPWR VPWR sky130_fd_sc_hd__decap_3
XFILLER_0_4_83 VGND VGND VPWR VPWR sky130_fd_sc_hd__fill_1
XTAP_TAPCELL_ROW_2_155 VGND VPWR sky130_fd_sc_hd__tapvpwrvgnd_1
XPHY_EDGE_ROW_21_Right_21 VGND VGND VPWR VPWR sky130_fd_sc_hd__decap_3
XTAP_TAPCELL_ROW_53_511 VGND VPWR sky130_fd_sc_hd__tapvpwrvgnd_1
XFILLER_0_37_137 VPWR VGND VPWR VGND sky130_ef_sc_hd__decap_12
XPHY_EDGE_ROW_4_Left_69 VGND VGND VPWR VPWR sky130_fd_sc_hd__decap_3
XFILLER_0_60_195 VGND VGND VPWR VPWR sky130_fd_sc_hd__fill_1
XFILLER_0_45_181 VPWR VGND VPWR VGND sky130_ef_sc_hd__decap_12
XPHY_EDGE_ROW_30_Right_30 VGND VGND VPWR VPWR sky130_fd_sc_hd__decap_3
XFILLER_0_61_27 VPWR VGND VPWR VGND sky130_ef_sc_hd__decap_12
XFILLER_0_45_39 VPWR VGND VPWR VGND sky130_ef_sc_hd__decap_12
XFILLER_0_9_39 VPWR VGND VPWR VGND sky130_ef_sc_hd__decap_12
XFILLER_0_24_321 VPWR VGND VPWR VGND sky130_ef_sc_hd__decap_12
XFILLER_0_3_237 VPWR VGND VPWR VGND sky130_ef_sc_hd__decap_12
XFILLER_0_10_53 VPWR VGND VPWR VGND sky130_ef_sc_hd__decap_12
XFILLER_0_10_97 VPWR VGND VPWR VGND sky130_ef_sc_hd__decap_12
XFILLER_0_24_365 VPWR VGND VPWR VGND sky130_ef_sc_hd__decap_12
X_48_ display_inst.clk_div\[0\] display_inst.clk_div\[1\] VGND VGND VPWR VPWR _01_
+ sky130_fd_sc_hd__xor2_2
XFILLER_0_19_51 VGND VGND VPWR VPWR sky130_fd_sc_hd__decap_4
XFILLER_0_59_273 VGND VGND VPWR VPWR sky130_fd_sc_hd__decap_6
XFILLER_0_19_137 VPWR VGND VPWR VGND sky130_ef_sc_hd__decap_12
XFILLER_0_51_93 VPWR VGND VPWR VGND sky130_ef_sc_hd__decap_12
XFILLER_0_42_195 VGND VGND VPWR VPWR sky130_fd_sc_hd__fill_1
XFILLER_0_34_129 VGND VGND VPWR VPWR sky130_fd_sc_hd__decap_8
XFILLER_0_27_181 VPWR VGND VPWR VGND sky130_ef_sc_hd__decap_12
XFILLER_0_30_357 VGND VGND VPWR VPWR sky130_fd_sc_hd__decap_6
XFILLER_0_53_405 VGND VGND VPWR VPWR sky130_fd_sc_hd__fill_2
XFILLER_0_21_335 VGND VGND VPWR VPWR sky130_fd_sc_hd__fill_1
XFILLER_0_56_27 VGND VGND VPWR VPWR sky130_fd_sc_hd__fill_1
XFILLER_0_56_265 VPWR VGND VPWR VGND sky130_ef_sc_hd__decap_12
XFILLER_0_56_221 VPWR VGND VPWR VGND sky130_ef_sc_hd__decap_12
XFILLER_0_8_307 VGND VGND VPWR VPWR sky130_fd_sc_hd__fill_1
XFILLER_0_24_195 VGND VGND VPWR VPWR sky130_fd_sc_hd__fill_1
XFILLER_0_12_357 VGND VGND VPWR VPWR sky130_fd_sc_hd__decap_6
XFILLER_0_1_51 VGND VGND VPWR VPWR sky130_fd_sc_hd__decap_4
XFILLER_0_27_3 VPWR VGND VPWR VGND sky130_ef_sc_hd__decap_12
XFILLER_0_47_232 VPWR VGND VPWR VGND sky130_ef_sc_hd__decap_12
XFILLER_0_35_405 VGND VGND VPWR VPWR sky130_fd_sc_hd__fill_2
XTAP_TAPCELL_ROW_35_385 VGND VPWR sky130_fd_sc_hd__tapvpwrvgnd_1
XFILLER_0_7_373 VPWR VGND VPWR VGND sky130_ef_sc_hd__decap_12
XTAP_TAPCELL_ROW_10_208 VGND VPWR sky130_fd_sc_hd__tapvpwrvgnd_1
XFILLER_0_30_121 VPWR VGND VPWR VGND sky130_ef_sc_hd__decap_12
XFILLER_0_38_265 VPWR VGND VPWR VGND sky130_ef_sc_hd__decap_12
XFILLER_0_38_221 VPWR VGND VPWR VGND sky130_ef_sc_hd__decap_12
XFILLER_0_53_279 VGND VGND VPWR VPWR sky130_fd_sc_hd__fill_1
XANTENNA_6 display_inst.clk_div\[0\] VGND VGND VPWR VPWR sky130_fd_sc_hd__diode_2
XPHY_EDGE_ROW_7_Left_72 VGND VGND VPWR VPWR sky130_fd_sc_hd__decap_3
XFILLER_0_6_29 VPWR VGND VPWR VGND sky130_ef_sc_hd__decap_12
XFILLER_0_16_41 VPWR VGND VPWR VGND sky130_ef_sc_hd__decap_12
XFILLER_0_16_85 VPWR VGND VPWR VGND sky130_ef_sc_hd__decap_12
XTAP_TAPCELL_ROW_32_366 VGND VPWR sky130_fd_sc_hd__tapvpwrvgnd_1
XFILLER_0_32_73 VGND VGND VPWR VPWR sky130_fd_sc_hd__decap_8
XFILLER_0_17_405 VGND VGND VPWR VPWR sky130_fd_sc_hd__fill_2
XFILLER_0_4_365 VPWR VGND VPWR VGND sky130_ef_sc_hd__decap_12
XFILLER_0_4_321 VPWR VGND VPWR VGND sky130_ef_sc_hd__decap_12
XPHY_EDGE_ROW_6_Right_6 VGND VGND VPWR VPWR sky130_fd_sc_hd__decap_3
XFILLER_0_12_121 VPWR VGND VPWR VGND sky130_ef_sc_hd__decap_12
XFILLER_0_12_165 VPWR VGND VPWR VGND sky130_ef_sc_hd__decap_12
XFILLER_0_57_81 VPWR VGND VPWR VGND sky130_ef_sc_hd__decap_12
XTAP_TAPCELL_ROW_23_300 VGND VPWR sky130_fd_sc_hd__tapvpwrvgnd_1
XFILLER_0_7_181 VPWR VGND VPWR VGND sky130_ef_sc_hd__decap_12
Xoutput8 net8 VGND VGND VPWR VPWR an[7] sky130_fd_sc_hd__buf_1
XPHY_EDGE_ROW_33_Left_98 VGND VGND VPWR VPWR sky130_fd_sc_hd__decap_3
XFILLER_0_53_39 VPWR VGND VPWR VGND sky130_ef_sc_hd__decap_12
XPHY_EDGE_ROW_59_Right_59 VGND VGND VPWR VPWR sky130_fd_sc_hd__decap_3
XFILLER_0_41_249 VPWR VGND VPWR VGND sky130_ef_sc_hd__decap_12
XFILLER_0_41_205 VPWR VGND VPWR VGND sky130_ef_sc_hd__decap_12
XFILLER_0_1_335 VGND VGND VPWR VPWR sky130_fd_sc_hd__fill_1
XFILLER_0_27_51 VGND VGND VPWR VPWR sky130_fd_sc_hd__decap_4
XFILLER_0_49_349 VPWR VGND VPWR VGND sky130_ef_sc_hd__decap_12
XFILLER_0_49_305 VPWR VGND VPWR VGND sky130_ef_sc_hd__decap_12
XFILLER_0_57_393 VPWR VGND VPWR VGND sky130_ef_sc_hd__decap_12
XFILLER_0_17_279 VGND VGND VPWR VPWR sky130_fd_sc_hd__fill_1
XTAP_TAPCELL_ROW_43_439 VGND VPWR sky130_fd_sc_hd__tapvpwrvgnd_1
XFILLER_0_63_385 VGND VGND VPWR VPWR sky130_fd_sc_hd__decap_6
XTAP_TAPCELL_ROW_51_494 VGND VPWR sky130_fd_sc_hd__tapvpwrvgnd_1
XFILLER_0_23_205 VPWR VGND VPWR VGND sky130_ef_sc_hd__decap_12
XFILLER_0_64_27 VGND VGND VPWR VPWR sky130_fd_sc_hd__fill_1
XFILLER_0_31_293 VPWR VGND VPWR VGND sky130_ef_sc_hd__decap_12
X_81_ display_inst.clk_div\[8\] _11_ VGND VGND VPWR VPWR display_inst.display_counter\[2\]
+ sky130_fd_sc_hd__dfxtp_4
XTAP_TAPCELL_ROW_8_194 VGND VPWR sky130_fd_sc_hd__tapvpwrvgnd_1
XTAP_TAPCELL_ROW_59_550 VGND VPWR sky130_fd_sc_hd__tapvpwrvgnd_1
XFILLER_0_54_363 VGND VGND VPWR VPWR sky130_fd_sc_hd__fill_1
XFILLER_0_39_393 VPWR VGND VPWR VGND sky130_ef_sc_hd__decap_12
XFILLER_0_1_132 VPWR VGND VPWR VGND sky130_ef_sc_hd__decap_12
XFILLER_0_49_113 VPWR VGND VPWR VGND sky130_ef_sc_hd__decap_12
XFILLER_0_60_377 VGND VGND VPWR VPWR sky130_fd_sc_hd__decap_8
XFILLER_0_60_333 VPWR VGND VPWR VGND sky130_ef_sc_hd__decap_12
XFILLER_0_45_385 VGND VGND VPWR VPWR sky130_fd_sc_hd__decap_6
XFILLER_0_13_293 VPWR VGND VPWR VGND sky130_ef_sc_hd__decap_12
XTAP_TAPCELL_ROW_56_531 VGND VPWR sky130_fd_sc_hd__tapvpwrvgnd_1
XTAP_TAPCELL_ROW_5_175 VGND VPWR sky130_fd_sc_hd__tapvpwrvgnd_1
XFILLER_0_55_149 VPWR VGND VPWR VGND sky130_ef_sc_hd__decap_12
XFILLER_0_55_105 VGND VGND VPWR VPWR sky130_fd_sc_hd__decap_6
XFILLER_0_51_311 VGND VGND VPWR VPWR sky130_fd_sc_hd__fill_1
XFILLER_0_50_29 VPWR VGND VPWR VGND sky130_ef_sc_hd__decap_12
XFILLER_0_36_363 VGND VGND VPWR VPWR sky130_fd_sc_hd__fill_1
XFILLER_0_63_193 VPWR VGND VPWR VGND sky130_ef_sc_hd__decap_12
XFILLER_0_59_27 VPWR VGND VPWR VGND sky130_ef_sc_hd__decap_12
X_64_ _27_ _28_ VGND VGND VPWR VPWR _29_ sky130_fd_sc_hd__and2b_1
XPHY_EDGE_ROW_20_Left_85 VGND VGND VPWR VPWR sky130_fd_sc_hd__decap_3
XFILLER_0_24_41 VPWR VGND VPWR VGND sky130_ef_sc_hd__decap_12
XFILLER_0_24_85 VPWR VGND VPWR VGND sky130_ef_sc_hd__decap_12
XFILLER_0_42_377 VPWR VGND VPWR VGND sky130_ef_sc_hd__decap_12
XFILLER_0_27_385 VGND VGND VPWR VPWR sky130_fd_sc_hd__decap_6
XFILLER_0_57_3 VPWR VGND VPWR VGND sky130_ef_sc_hd__decap_12
XFILLER_0_49_93 VPWR VGND VPWR VGND sky130_ef_sc_hd__decap_12
XTAP_TAPCELL_ROW_53_512 VGND VPWR sky130_fd_sc_hd__tapvpwrvgnd_1
XTAP_TAPCELL_ROW_2_156 VGND VPWR sky130_fd_sc_hd__tapvpwrvgnd_1
XFILLER_0_37_149 VPWR VGND VPWR VGND sky130_ef_sc_hd__decap_12
XFILLER_0_37_105 VGND VGND VPWR VPWR sky130_fd_sc_hd__decap_6
XFILLER_0_18_363 VGND VGND VPWR VPWR sky130_fd_sc_hd__fill_1
XFILLER_0_60_141 VPWR VGND VPWR VGND sky130_ef_sc_hd__decap_12
XFILLER_0_45_193 VPWR VGND VPWR VGND sky130_ef_sc_hd__decap_12
XFILLER_0_61_39 VPWR VGND VPWR VGND sky130_ef_sc_hd__decap_12
XFILLER_0_3_249 VPWR VGND VPWR VGND sky130_ef_sc_hd__decap_12
XFILLER_0_3_205 VPWR VGND VPWR VGND sky130_ef_sc_hd__decap_12
XFILLER_0_24_333 VPWR VGND VPWR VGND sky130_ef_sc_hd__decap_12
XFILLER_0_24_377 VPWR VGND VPWR VGND sky130_ef_sc_hd__decap_12
XFILLER_0_10_65 VPWR VGND VPWR VGND sky130_ef_sc_hd__decap_12
X_47_ display_inst.clk_div\[0\] VGND VGND VPWR VPWR _00_ sky130_fd_sc_hd__inv_2
XFILLER_0_35_51 VGND VGND VPWR VPWR sky130_fd_sc_hd__decap_4
XFILLER_0_19_105 VGND VGND VPWR VPWR sky130_fd_sc_hd__decap_6
XFILLER_0_19_149 VPWR VGND VPWR VGND sky130_ef_sc_hd__decap_12
XFILLER_0_42_141 VPWR VGND VPWR VGND sky130_ef_sc_hd__decap_12
XFILLER_0_27_193 VPWR VGND VPWR VGND sky130_ef_sc_hd__decap_12
XTAP_TAPCELL_ROW_13_228 VGND VPWR sky130_fd_sc_hd__tapvpwrvgnd_1
XFILLER_0_56_277 VPWR VGND VPWR VGND sky130_ef_sc_hd__decap_12
XFILLER_0_56_233 VPWR VGND VPWR VGND sky130_ef_sc_hd__decap_12
XFILLER_0_24_141 VPWR VGND VPWR VGND sky130_ef_sc_hd__decap_12
XFILLER_0_41_6 VGND VGND VPWR VPWR sky130_fd_sc_hd__fill_2
XFILLER_0_46_83 VGND VGND VPWR VPWR sky130_fd_sc_hd__fill_1
XFILLER_0_47_244 VPWR VGND VPWR VGND sky130_ef_sc_hd__decap_12
XTAP_TAPCELL_ROW_35_386 VGND VPWR sky130_fd_sc_hd__tapvpwrvgnd_1
XFILLER_0_7_385 VGND VGND VPWR VPWR sky130_fd_sc_hd__decap_6
XTAP_TAPCELL_ROW_10_209 VGND VPWR sky130_fd_sc_hd__tapvpwrvgnd_1
XPHY_EDGE_ROW_42_Left_107 VGND VGND VPWR VPWR sky130_fd_sc_hd__decap_3
XFILLER_0_30_133 VGND VGND VPWR VPWR sky130_fd_sc_hd__decap_6
XFILLER_0_11_391 VGND VGND VPWR VPWR sky130_fd_sc_hd__fill_1
XPHY_EDGE_ROW_51_Left_116 VGND VGND VPWR VPWR sky130_fd_sc_hd__decap_3
XFILLER_0_38_277 VPWR VGND VPWR VGND sky130_ef_sc_hd__decap_12
XFILLER_0_38_233 VPWR VGND VPWR VGND sky130_ef_sc_hd__decap_12
XTAP_TAPCELL_ROW_26_320 VGND VPWR sky130_fd_sc_hd__tapvpwrvgnd_1
XFILLER_0_53_225 VPWR VGND VPWR VGND sky130_ef_sc_hd__decap_12
XANTENNA_7 display_inst.clk_div\[5\] VGND VGND VPWR VPWR sky130_fd_sc_hd__diode_2
XFILLER_0_21_111 VGND VGND VPWR VPWR sky130_fd_sc_hd__fill_1
XPHY_EDGE_ROW_60_Left_125 VGND VGND VPWR VPWR sky130_fd_sc_hd__decap_3
XFILLER_0_16_53 VPWR VGND VPWR VGND sky130_ef_sc_hd__decap_12
XFILLER_0_16_97 VPWR VGND VPWR VGND sky130_ef_sc_hd__decap_12
XTAP_TAPCELL_ROW_32_367 VGND VPWR sky130_fd_sc_hd__tapvpwrvgnd_1
XFILLER_0_32_85 VPWR VGND VPWR VGND sky130_ef_sc_hd__decap_12
XFILLER_0_32_41 VPWR VGND VPWR VGND sky130_ef_sc_hd__decap_12
XFILLER_0_4_333 VPWR VGND VPWR VGND sky130_ef_sc_hd__decap_12
XFILLER_0_4_377 VPWR VGND VPWR VGND sky130_ef_sc_hd__decap_12
XFILLER_0_12_133 VGND VGND VPWR VPWR sky130_fd_sc_hd__decap_6
XFILLER_0_12_177 VPWR VGND VPWR VGND sky130_ef_sc_hd__decap_12
XFILLER_0_57_93 VPWR VGND VPWR VGND sky130_ef_sc_hd__decap_12
XTAP_TAPCELL_ROW_23_301 VGND VPWR sky130_fd_sc_hd__tapvpwrvgnd_1
XFILLER_0_35_225 VPWR VGND VPWR VGND sky130_ef_sc_hd__decap_12
XFILLER_0_7_193 VPWR VGND VPWR VGND sky130_ef_sc_hd__decap_12
XFILLER_0_9_3 VPWR VGND VPWR VGND sky130_ef_sc_hd__decap_12
XTAP_TAPCELL_ROW_46_459 VGND VPWR sky130_fd_sc_hd__tapvpwrvgnd_1
XFILLER_0_41_217 VGND VGND VPWR VPWR sky130_fd_sc_hd__decap_6
XFILLER_0_64_309 VPWR VGND VPWR VGND sky130_ef_sc_hd__decap_12
XFILLER_0_57_361 VPWR VGND VPWR VGND sky130_ef_sc_hd__decap_12
XFILLER_0_49_317 VPWR VGND VPWR VGND sky130_ef_sc_hd__decap_12
XFILLER_0_43_51 VGND VGND VPWR VPWR sky130_fd_sc_hd__decap_4
XFILLER_0_4_141 VPWR VGND VPWR VGND sky130_ef_sc_hd__decap_12
XFILLER_0_17_225 VPWR VGND VPWR VGND sky130_ef_sc_hd__decap_12
XFILLER_0_7_51 VGND VGND VPWR VPWR sky130_fd_sc_hd__decap_4
XTAP_TAPCELL_ROW_51_495 VGND VPWR sky130_fd_sc_hd__tapvpwrvgnd_1
XFILLER_0_48_29 VPWR VGND VPWR VGND sky130_ef_sc_hd__decap_12
XFILLER_0_31_261 VPWR VGND VPWR VGND sky130_ef_sc_hd__decap_12
XFILLER_0_23_217 VGND VGND VPWR VPWR sky130_fd_sc_hd__decap_6
XTAP_TAPCELL_ROW_59_551 VGND VPWR sky130_fd_sc_hd__tapvpwrvgnd_1
X_80_ display_inst.clk_div\[8\] _10_ VGND VGND VPWR VPWR display_inst.display_counter\[1\]
+ sky130_fd_sc_hd__dfxtp_4
XTAP_TAPCELL_ROW_8_195 VGND VPWR sky130_fd_sc_hd__tapvpwrvgnd_1
XFILLER_0_46_309 VPWR VGND VPWR VGND sky130_ef_sc_hd__decap_12
XFILLER_0_39_361 VPWR VGND VPWR VGND sky130_ef_sc_hd__decap_12
XFILLER_0_1_111 VGND VGND VPWR VPWR sky130_fd_sc_hd__fill_1
XFILLER_0_1_144 VPWR VGND VPWR VGND sky130_ef_sc_hd__decap_12
XFILLER_0_10_401 VGND VGND VPWR VPWR sky130_fd_sc_hd__decap_3
XFILLER_0_54_83 VGND VGND VPWR VPWR sky130_fd_sc_hd__fill_1
XFILLER_0_49_169 VPWR VGND VPWR VGND sky130_ef_sc_hd__decap_12
XFILLER_0_49_125 VPWR VGND VPWR VGND sky130_ef_sc_hd__decap_12
XFILLER_0_60_345 VPWR VGND VPWR VGND sky130_ef_sc_hd__decap_12
XFILLER_0_60_301 VGND VGND VPWR VPWR sky130_fd_sc_hd__decap_6
XFILLER_0_13_261 VPWR VGND VPWR VGND sky130_ef_sc_hd__decap_12
XFILLER_0_20_209 VPWR VGND VPWR VGND sky130_ef_sc_hd__decap_12
XTAP_TAPCELL_ROW_5_176 VGND VPWR sky130_fd_sc_hd__tapvpwrvgnd_1
XTAP_TAPCELL_ROW_56_532 VGND VPWR sky130_fd_sc_hd__tapvpwrvgnd_1
XFILLER_0_28_309 VPWR VGND VPWR VGND sky130_ef_sc_hd__decap_12
XFILLER_0_63_161 VGND VGND VPWR VPWR sky130_fd_sc_hd__decap_6
XFILLER_0_59_39 VPWR VGND VPWR VGND sky130_ef_sc_hd__decap_12
XFILLER_0_59_401 VGND VGND VPWR VPWR sky130_fd_sc_hd__decap_3
X_63_ display_inst.clk_div\[4\] display_inst.clk_div\[5\] display_inst.clk_div\[6\]
+ _22_ display_inst.clk_div\[7\] VGND VGND VPWR VPWR _28_ sky130_fd_sc_hd__a41o_1
XFILLER_0_46_139 VGND VGND VPWR VPWR sky130_fd_sc_hd__fill_1
XFILLER_0_24_53 VPWR VGND VPWR VGND sky130_ef_sc_hd__decap_12
XFILLER_0_24_97 VPWR VGND VPWR VGND sky130_ef_sc_hd__decap_12
XFILLER_0_42_389 VPWR VGND VPWR VGND sky130_ef_sc_hd__decap_12
XFILLER_0_40_85 VPWR VGND VPWR VGND sky130_ef_sc_hd__decap_12
XFILLER_0_40_41 VPWR VGND VPWR VGND sky130_ef_sc_hd__decap_12
XFILLER_0_4_85 VPWR VGND VPWR VGND sky130_ef_sc_hd__decap_12
XFILLER_0_4_41 VPWR VGND VPWR VGND sky130_ef_sc_hd__decap_12
XFILLER_0_10_253 VPWR VGND VPWR VGND sky130_ef_sc_hd__decap_12
XTAP_TAPCELL_ROW_53_513 VGND VPWR sky130_fd_sc_hd__tapvpwrvgnd_1
XTAP_TAPCELL_ROW_2_157 VGND VPWR sky130_fd_sc_hd__tapvpwrvgnd_1
XFILLER_0_52_109 VPWR VGND VPWR VGND sky130_ef_sc_hd__decap_12
XFILLER_0_45_161 VGND VGND VPWR VPWR sky130_fd_sc_hd__decap_6
XFILLER_0_60_197 VPWR VGND VPWR VGND sky130_ef_sc_hd__decap_12
XFILLER_0_60_153 VPWR VGND VPWR VGND sky130_ef_sc_hd__decap_12
XFILLER_0_28_139 VGND VGND VPWR VPWR sky130_fd_sc_hd__fill_1
XFILLER_0_3_217 VGND VGND VPWR VPWR sky130_fd_sc_hd__decap_6
XFILLER_0_10_77 VGND VGND VPWR VPWR sky130_fd_sc_hd__decap_6
XFILLER_0_24_301 VGND VGND VPWR VPWR sky130_fd_sc_hd__decap_6
XFILLER_0_24_345 VPWR VGND VPWR VGND sky130_ef_sc_hd__decap_12
XFILLER_0_24_389 VPWR VGND VPWR VGND sky130_ef_sc_hd__decap_12
X_46_ display_inst.display_counter\[1\] display_inst.display_counter\[0\] display_inst.display_counter\[2\]
+ VGND VGND VPWR VPWR net8 sky130_fd_sc_hd__nand3_1
XFILLER_0_51_51 VGND VGND VPWR VPWR sky130_fd_sc_hd__decap_4
XFILLER_0_34_109 VGND VGND VPWR VPWR sky130_fd_sc_hd__decap_3
XFILLER_0_42_197 VPWR VGND VPWR VGND sky130_ef_sc_hd__decap_12
XFILLER_0_42_153 VPWR VGND VPWR VGND sky130_ef_sc_hd__decap_12
XTAP_TAPCELL_ROW_13_229 VGND VPWR sky130_fd_sc_hd__tapvpwrvgnd_1
XFILLER_0_0_209 VPWR VGND VPWR VGND sky130_ef_sc_hd__decap_12
XTAP_TAPCELL_ROW_21_284 VGND VPWR sky130_fd_sc_hd__tapvpwrvgnd_1