*SPEF "ieee 1481-1999"
*DESIGN "semi_cpu_top"
*DATE "00:13:57 Sunday June 08, 2025"
*VENDOR "The OpenROAD Project"
*PROGRAM "OpenROAD"
*VERSION "b16bda7e82721d10566ff7e2b68f1ff0be9f9e38"
*DESIGN_FLOW "NAME_SCOPE LOCAL" "PIN_CAP NONE"
*DIVIDER /
*DELIMITER :
*BUS_DELIMITER []
*T_UNIT 1 NS
*C_UNIT 1 PF
*R_UNIT 1 OHM
*L_UNIT 1 HENRY

*NAME_MAP
*3 an[0]
*4 an[1]
*5 an[2]
*6 an[3]
*7 an[4]
*8 an[5]
*9 an[6]
*10 an[7]
*11 clk
*12 control
*13 reset
*14 net9
*15 net10
*16 net11
*17 net12
*18 net13
*19 net14
*20 net15
*21 _00_
*22 _01_
*23 _02_
*24 _03_
*25 _04_
*26 _05_
*27 _06_
*28 _07_
*29 _08_
*30 _09_
*31 _10_
*32 _11_
*33 _12_
*34 _13_
*35 _14_
*36 _15_
*37 _16_
*38 _17_
*39 _18_
*40 _19_
*41 _20_
*42 _21_
*43 _22_
*44 _23_
*45 _24_
*46 _25_
*47 _26_
*48 _27_
*49 _28_
*50 _29_
*51 _30_
*52 clknet_0_clk
*53 clknet_1_0__leaf_clk
*54 clknet_1_1__leaf_clk
*55 display_inst\.clk_div\[0\]
*56 display_inst\.clk_div\[1\]
*57 display_inst\.clk_div\[2\]
*58 display_inst\.clk_div\[3\]
*59 display_inst\.clk_div\[4\]
*60 display_inst\.clk_div\[5\]
*61 display_inst\.clk_div\[6\]
*62 display_inst\.clk_div\[7\]
*63 display_inst\.clk_div\[8\]
*64 display_inst\.display_counter\[0\]
*65 display_inst\.display_counter\[1\]
*66 display_inst\.display_counter\[2\]
*67 net1
*68 net2
*69 net3
*70 net4
*71 net5
*72 net6
*73 net7
*74 net8
*75 ANTENNA_1
*76 ANTENNA_10
*77 ANTENNA_2
*78 ANTENNA_3
*79 ANTENNA_4
*80 ANTENNA_5
*81 ANTENNA_6
*82 ANTENNA_7
*83 ANTENNA_8
*84 ANTENNA_9
*85 FILLER_0_0_109
*86 FILLER_0_0_113
*87 FILLER_0_0_125
*88 FILLER_0_0_137
*89 FILLER_0_0_141
*90 FILLER_0_0_15
*91 FILLER_0_0_153
*92 FILLER_0_0_165
*93 FILLER_0_0_169
*94 FILLER_0_0_181
*95 FILLER_0_0_193
*96 FILLER_0_0_197
*97 FILLER_0_0_209
*98 FILLER_0_0_221
*99 FILLER_0_0_225
*100 FILLER_0_0_237
*101 FILLER_0_0_249
*102 FILLER_0_0_253
*103 FILLER_0_0_265
*104 FILLER_0_0_27
*105 FILLER_0_0_277
*106 FILLER_0_0_281
*107 FILLER_0_0_29
*108 FILLER_0_0_293
*109 FILLER_0_0_3
*110 FILLER_0_0_305
*111 FILLER_0_0_309
*112 FILLER_0_0_321
*113 FILLER_0_0_333
*114 FILLER_0_0_337
*115 FILLER_0_0_349
*116 FILLER_0_0_361
*117 FILLER_0_0_365
*118 FILLER_0_0_377
*119 FILLER_0_0_389
*120 FILLER_0_0_393
*121 FILLER_0_0_405
*122 FILLER_0_0_41
*123 FILLER_0_0_53
*124 FILLER_0_0_57
*125 FILLER_0_0_69
*126 FILLER_0_0_81
*127 FILLER_0_0_85
*128 FILLER_0_0_97
*129 FILLER_0_10_109
*130 FILLER_0_10_121
*131 FILLER_0_10_133
*132 FILLER_0_10_139
*133 FILLER_0_10_141
*134 FILLER_0_10_15
*135 FILLER_0_10_153
*136 FILLER_0_10_165
*137 FILLER_0_10_177
*138 FILLER_0_10_189
*139 FILLER_0_10_195
*140 FILLER_0_10_197
*141 FILLER_0_10_209
*142 FILLER_0_10_221
*143 FILLER_0_10_233
*144 FILLER_0_10_245
*145 FILLER_0_10_251
*146 FILLER_0_10_253
*147 FILLER_0_10_265
*148 FILLER_0_10_27
*149 FILLER_0_10_277
*150 FILLER_0_10_289
*151 FILLER_0_10_29
*152 FILLER_0_10_3
*153 FILLER_0_10_301
*154 FILLER_0_10_307
*155 FILLER_0_10_315
*156 FILLER_0_10_327
*157 FILLER_0_10_339
*158 FILLER_0_10_351
*159 FILLER_0_10_363
*160 FILLER_0_10_365
*161 FILLER_0_10_377
*162 FILLER_0_10_389
*163 FILLER_0_10_401
*164 FILLER_0_10_41
*165 FILLER_0_10_49
*166 FILLER_0_10_61
*167 FILLER_0_10_73
*168 FILLER_0_10_81
*169 FILLER_0_10_85
*170 FILLER_0_10_97
*171 FILLER_0_11_105
*172 FILLER_0_11_111
*173 FILLER_0_11_113
*174 FILLER_0_11_125
*175 FILLER_0_11_137
*176 FILLER_0_11_149
*177 FILLER_0_11_15
*178 FILLER_0_11_161
*179 FILLER_0_11_167
*180 FILLER_0_11_169
*181 FILLER_0_11_181
*182 FILLER_0_11_193
*183 FILLER_0_11_205
*184 FILLER_0_11_217
*185 FILLER_0_11_223
*186 FILLER_0_11_225
*187 FILLER_0_11_237
*188 FILLER_0_11_249
*189 FILLER_0_11_261
*190 FILLER_0_11_27
*191 FILLER_0_11_273
*192 FILLER_0_11_279
*193 FILLER_0_11_281
*194 FILLER_0_11_293
*195 FILLER_0_11_3
*196 FILLER_0_11_305
*197 FILLER_0_11_317
*198 FILLER_0_11_329
*199 FILLER_0_11_335
*200 FILLER_0_11_337
*201 FILLER_0_11_349
*202 FILLER_0_11_361
*203 FILLER_0_11_373
*204 FILLER_0_11_385
*205 FILLER_0_11_39
*206 FILLER_0_11_391
*207 FILLER_0_11_393
*208 FILLER_0_11_405
*209 FILLER_0_11_51
*210 FILLER_0_11_55
*211 FILLER_0_11_57
*212 FILLER_0_11_69
*213 FILLER_0_11_81
*214 FILLER_0_11_93
*215 FILLER_0_12_109
*216 FILLER_0_12_121
*217 FILLER_0_12_133
*218 FILLER_0_12_139
*219 FILLER_0_12_141
*220 FILLER_0_12_15
*221 FILLER_0_12_153
*222 FILLER_0_12_165
*223 FILLER_0_12_177
*224 FILLER_0_12_189
*225 FILLER_0_12_195
*226 FILLER_0_12_197
*227 FILLER_0_12_209
*228 FILLER_0_12_221
*229 FILLER_0_12_233
*230 FILLER_0_12_245
*231 FILLER_0_12_251
*232 FILLER_0_12_253
*233 FILLER_0_12_265
*234 FILLER_0_12_27
*235 FILLER_0_12_277
*236 FILLER_0_12_289
*237 FILLER_0_12_29
*238 FILLER_0_12_3
*239 FILLER_0_12_301
*240 FILLER_0_12_307
*241 FILLER_0_12_309
*242 FILLER_0_12_321
*243 FILLER_0_12_333
*244 FILLER_0_12_345
*245 FILLER_0_12_357
*246 FILLER_0_12_363
*247 FILLER_0_12_365
*248 FILLER_0_12_377
*249 FILLER_0_12_389
*250 FILLER_0_12_401
*251 FILLER_0_12_41
*252 FILLER_0_12_53
*253 FILLER_0_12_65
*254 FILLER_0_12_77
*255 FILLER_0_12_83
*256 FILLER_0_12_85
*257 FILLER_0_12_97
*258 FILLER_0_13_105
*259 FILLER_0_13_111
*260 FILLER_0_13_113
*261 FILLER_0_13_125
*262 FILLER_0_13_137
*263 FILLER_0_13_149
*264 FILLER_0_13_15
*265 FILLER_0_13_161
*266 FILLER_0_13_167
*267 FILLER_0_13_169
*268 FILLER_0_13_181
*269 FILLER_0_13_193
*270 FILLER_0_13_205
*271 FILLER_0_13_217
*272 FILLER_0_13_223
*273 FILLER_0_13_225
*274 FILLER_0_13_237
*275 FILLER_0_13_249
*276 FILLER_0_13_261
*277 FILLER_0_13_27
*278 FILLER_0_13_273
*279 FILLER_0_13_279
*280 FILLER_0_13_281
*281 FILLER_0_13_293
*282 FILLER_0_13_3
*283 FILLER_0_13_305
*284 FILLER_0_13_317
*285 FILLER_0_13_329
*286 FILLER_0_13_335
*287 FILLER_0_13_337
*288 FILLER_0_13_349
*289 FILLER_0_13_361
*290 FILLER_0_13_373
*291 FILLER_0_13_385
*292 FILLER_0_13_39
*293 FILLER_0_13_391
*294 FILLER_0_13_393
*295 FILLER_0_13_405
*296 FILLER_0_13_51
*297 FILLER_0_13_55
*298 FILLER_0_13_57
*299 FILLER_0_13_69
*300 FILLER_0_13_81
*301 FILLER_0_13_93
*302 FILLER_0_14_109
*303 FILLER_0_14_121
*304 FILLER_0_14_129
*305 FILLER_0_14_138
*306 FILLER_0_14_141
*307 FILLER_0_14_15
*308 FILLER_0_14_153
*309 FILLER_0_14_165
*310 FILLER_0_14_177
*311 FILLER_0_14_189
*312 FILLER_0_14_195
*313 FILLER_0_14_197
*314 FILLER_0_14_209
*315 FILLER_0_14_221
*316 FILLER_0_14_233
*317 FILLER_0_14_246
*318 FILLER_0_14_253
*319 FILLER_0_14_265
*320 FILLER_0_14_27
*321 FILLER_0_14_277
*322 FILLER_0_14_285
*323 FILLER_0_14_29
*324 FILLER_0_14_295
*325 FILLER_0_14_3
*326 FILLER_0_14_307
*327 FILLER_0_14_309
*328 FILLER_0_14_321
*329 FILLER_0_14_333
*330 FILLER_0_14_345
*331 FILLER_0_14_357
*332 FILLER_0_14_363
*333 FILLER_0_14_365
*334 FILLER_0_14_380
*335 FILLER_0_14_392
*336 FILLER_0_14_404
*337 FILLER_0_14_41
*338 FILLER_0_14_53
*339 FILLER_0_14_65
*340 FILLER_0_14_77
*341 FILLER_0_14_83
*342 FILLER_0_14_85
*343 FILLER_0_14_97
*344 FILLER_0_15_105
*345 FILLER_0_15_111
*346 FILLER_0_15_113
*347 FILLER_0_15_125
*348 FILLER_0_15_129
*349 FILLER_0_15_146
*350 FILLER_0_15_15
*351 FILLER_0_15_158
*352 FILLER_0_15_166
*353 FILLER_0_15_169
*354 FILLER_0_15_181
*355 FILLER_0_15_193
*356 FILLER_0_15_205
*357 FILLER_0_15_217
*358 FILLER_0_15_223
*359 FILLER_0_15_225
*360 FILLER_0_15_237
*361 FILLER_0_15_249
*362 FILLER_0_15_261
*363 FILLER_0_15_27
*364 FILLER_0_15_273
*365 FILLER_0_15_279
*366 FILLER_0_15_281
*367 FILLER_0_15_293
*368 FILLER_0_15_3
*369 FILLER_0_15_305
*370 FILLER_0_15_317
*371 FILLER_0_15_329
*372 FILLER_0_15_335
*373 FILLER_0_15_337
*374 FILLER_0_15_349
*375 FILLER_0_15_361
*376 FILLER_0_15_373
*377 FILLER_0_15_385
*378 FILLER_0_15_39
*379 FILLER_0_15_391
*380 FILLER_0_15_393
*381 FILLER_0_15_401
*382 FILLER_0_15_51
*383 FILLER_0_15_55
*384 FILLER_0_15_57
*385 FILLER_0_15_69
*386 FILLER_0_15_81
*387 FILLER_0_15_93
*388 FILLER_0_16_109
*389 FILLER_0_16_121
*390 FILLER_0_16_133
*391 FILLER_0_16_139
*392 FILLER_0_16_141
*393 FILLER_0_16_15
*394 FILLER_0_16_153
*395 FILLER_0_16_165
*396 FILLER_0_16_177
*397 FILLER_0_16_189
*398 FILLER_0_16_195
*399 FILLER_0_16_197
*400 FILLER_0_16_209
*401 FILLER_0_16_221
*402 FILLER_0_16_233
*403 FILLER_0_16_245
*404 FILLER_0_16_251
*405 FILLER_0_16_253
*406 FILLER_0_16_265
*407 FILLER_0_16_27
*408 FILLER_0_16_277
*409 FILLER_0_16_289
*410 FILLER_0_16_29
*411 FILLER_0_16_3
*412 FILLER_0_16_301
*413 FILLER_0_16_307
*414 FILLER_0_16_309
*415 FILLER_0_16_321
*416 FILLER_0_16_333
*417 FILLER_0_16_345
*418 FILLER_0_16_357
*419 FILLER_0_16_363
*420 FILLER_0_16_365
*421 FILLER_0_16_377
*422 FILLER_0_16_389
*423 FILLER_0_16_401
*424 FILLER_0_16_41
*425 FILLER_0_16_53
*426 FILLER_0_16_65
*427 FILLER_0_16_77
*428 FILLER_0_16_83
*429 FILLER_0_16_85
*430 FILLER_0_16_97
*431 FILLER_0_17_105
*432 FILLER_0_17_111
*433 FILLER_0_17_113
*434 FILLER_0_17_125
*435 FILLER_0_17_137
*436 FILLER_0_17_149
*437 FILLER_0_17_15
*438 FILLER_0_17_161
*439 FILLER_0_17_167
*440 FILLER_0_17_169
*441 FILLER_0_17_181
*442 FILLER_0_17_193
*443 FILLER_0_17_205
*444 FILLER_0_17_217
*445 FILLER_0_17_223
*446 FILLER_0_17_225
*447 FILLER_0_17_237
*448 FILLER_0_17_249
*449 FILLER_0_17_261
*450 FILLER_0_17_27
*451 FILLER_0_17_273
*452 FILLER_0_17_279
*453 FILLER_0_17_281
*454 FILLER_0_17_293
*455 FILLER_0_17_3
*456 FILLER_0_17_305
*457 FILLER_0_17_317
*458 FILLER_0_17_329
*459 FILLER_0_17_335
*460 FILLER_0_17_337
*461 FILLER_0_17_349
*462 FILLER_0_17_361
*463 FILLER_0_17_373
*464 FILLER_0_17_385
*465 FILLER_0_17_39
*466 FILLER_0_17_391
*467 FILLER_0_17_393
*468 FILLER_0_17_405
*469 FILLER_0_17_51
*470 FILLER_0_17_55
*471 FILLER_0_17_57
*472 FILLER_0_17_69
*473 FILLER_0_17_81
*474 FILLER_0_17_93
*475 FILLER_0_18_109
*476 FILLER_0_18_121
*477 FILLER_0_18_133
*478 FILLER_0_18_139
*479 FILLER_0_18_141
*480 FILLER_0_18_15
*481 FILLER_0_18_153
*482 FILLER_0_18_165
*483 FILLER_0_18_177
*484 FILLER_0_18_189
*485 FILLER_0_18_195
*486 FILLER_0_18_197
*487 FILLER_0_18_209
*488 FILLER_0_18_221
*489 FILLER_0_18_233
*490 FILLER_0_18_245
*491 FILLER_0_18_251
*492 FILLER_0_18_253
*493 FILLER_0_18_265
*494 FILLER_0_18_27
*495 FILLER_0_18_277
*496 FILLER_0_18_289
*497 FILLER_0_18_29
*498 FILLER_0_18_3
*499 FILLER_0_18_301
*500 FILLER_0_18_307
*501 FILLER_0_18_309
*502 FILLER_0_18_321
*503 FILLER_0_18_333
*504 FILLER_0_18_345
*505 FILLER_0_18_357
*506 FILLER_0_18_363
*507 FILLER_0_18_365
*508 FILLER_0_18_377
*509 FILLER_0_18_389
*510 FILLER_0_18_401
*511 FILLER_0_18_41
*512 FILLER_0_18_53
*513 FILLER_0_18_65
*514 FILLER_0_18_77
*515 FILLER_0_18_83
*516 FILLER_0_18_85
*517 FILLER_0_18_97
*518 FILLER_0_19_105
*519 FILLER_0_19_111
*520 FILLER_0_19_113
*521 FILLER_0_19_125
*522 FILLER_0_19_137
*523 FILLER_0_19_149
*524 FILLER_0_19_15
*525 FILLER_0_19_161
*526 FILLER_0_19_167
*527 FILLER_0_19_169
*528 FILLER_0_19_181
*529 FILLER_0_19_193
*530 FILLER_0_19_205
*531 FILLER_0_19_217
*532 FILLER_0_19_223
*533 FILLER_0_19_225
*534 FILLER_0_19_237
*535 FILLER_0_19_249
*536 FILLER_0_19_261
*537 FILLER_0_19_27
*538 FILLER_0_19_273
*539 FILLER_0_19_279
*540 FILLER_0_19_281
*541 FILLER_0_19_293
*542 FILLER_0_19_3
*543 FILLER_0_19_305
*544 FILLER_0_19_317
*545 FILLER_0_19_329
*546 FILLER_0_19_335
*547 FILLER_0_19_337
*548 FILLER_0_19_349
*549 FILLER_0_19_361
*550 FILLER_0_19_373
*551 FILLER_0_19_381
*552 FILLER_0_19_386
*553 FILLER_0_19_39
*554 FILLER_0_19_393
*555 FILLER_0_19_401
*556 FILLER_0_19_51
*557 FILLER_0_19_55
*558 FILLER_0_19_57
*559 FILLER_0_19_69
*560 FILLER_0_19_81
*561 FILLER_0_19_93
*562 FILLER_0_1_105
*563 FILLER_0_1_111
*564 FILLER_0_1_113
*565 FILLER_0_1_125
*566 FILLER_0_1_137
*567 FILLER_0_1_149
*568 FILLER_0_1_15
*569 FILLER_0_1_161
*570 FILLER_0_1_167
*571 FILLER_0_1_169
*572 FILLER_0_1_181
*573 FILLER_0_1_193
*574 FILLER_0_1_205
*575 FILLER_0_1_217
*576 FILLER_0_1_223
*577 FILLER_0_1_225
*578 FILLER_0_1_237
*579 FILLER_0_1_249
*580 FILLER_0_1_261
*581 FILLER_0_1_27
*582 FILLER_0_1_273
*583 FILLER_0_1_279
*584 FILLER_0_1_281
*585 FILLER_0_1_293
*586 FILLER_0_1_3
*587 FILLER_0_1_305
*588 FILLER_0_1_317
*589 FILLER_0_1_329
*590 FILLER_0_1_335
*591 FILLER_0_1_337
*592 FILLER_0_1_349
*593 FILLER_0_1_361
*594 FILLER_0_1_373
*595 FILLER_0_1_385
*596 FILLER_0_1_39
*597 FILLER_0_1_391
*598 FILLER_0_1_393
*599 FILLER_0_1_401
*600 FILLER_0_1_51
*601 FILLER_0_1_55
*602 FILLER_0_1_57
*603 FILLER_0_1_69
*604 FILLER_0_1_81
*605 FILLER_0_1_93
*606 FILLER_0_20_109
*607 FILLER_0_20_121
*608 FILLER_0_20_133
*609 FILLER_0_20_139
*610 FILLER_0_20_141
*611 FILLER_0_20_15
*612 FILLER_0_20_153
*613 FILLER_0_20_165
*614 FILLER_0_20_177
*615 FILLER_0_20_189
*616 FILLER_0_20_195
*617 FILLER_0_20_197
*618 FILLER_0_20_209
*619 FILLER_0_20_221
*620 FILLER_0_20_233
*621 FILLER_0_20_241
*622 FILLER_0_20_249
*623 FILLER_0_20_253
*624 FILLER_0_20_265
*625 FILLER_0_20_27
*626 FILLER_0_20_277
*627 FILLER_0_20_289
*628 FILLER_0_20_29
*629 FILLER_0_20_3
*630 FILLER_0_20_301
*631 FILLER_0_20_307
*632 FILLER_0_20_309
*633 FILLER_0_20_321
*634 FILLER_0_20_333
*635 FILLER_0_20_345
*636 FILLER_0_20_357
*637 FILLER_0_20_362
*638 FILLER_0_20_365
*639 FILLER_0_20_377
*640 FILLER_0_20_389
*641 FILLER_0_20_401
*642 FILLER_0_20_41
*643 FILLER_0_20_49
*644 FILLER_0_20_55
*645 FILLER_0_20_67
*646 FILLER_0_20_79
*647 FILLER_0_20_83
*648 FILLER_0_20_85
*649 FILLER_0_20_97
*650 FILLER_0_21_105
*651 FILLER_0_21_111
*652 FILLER_0_21_113
*653 FILLER_0_21_125
*654 FILLER_0_21_137
*655 FILLER_0_21_149
*656 FILLER_0_21_15
*657 FILLER_0_21_161
*658 FILLER_0_21_167
*659 FILLER_0_21_169
*660 FILLER_0_21_181
*661 FILLER_0_21_193
*662 FILLER_0_21_205
*663 FILLER_0_21_217
*664 FILLER_0_21_223
*665 FILLER_0_21_225
*666 FILLER_0_21_237
*667 FILLER_0_21_249
*668 FILLER_0_21_261
*669 FILLER_0_21_27
*670 FILLER_0_21_273
*671 FILLER_0_21_279
*672 FILLER_0_21_281
*673 FILLER_0_21_293
*674 FILLER_0_21_3
*675 FILLER_0_21_305
*676 FILLER_0_21_317
*677 FILLER_0_21_329
*678 FILLER_0_21_335
*679 FILLER_0_21_337
*680 FILLER_0_21_349
*681 FILLER_0_21_361
*682 FILLER_0_21_373
*683 FILLER_0_21_385
*684 FILLER_0_21_39
*685 FILLER_0_21_391
*686 FILLER_0_21_393
*687 FILLER_0_21_405
*688 FILLER_0_21_51
*689 FILLER_0_21_55
*690 FILLER_0_21_57
*691 FILLER_0_21_69
*692 FILLER_0_21_81
*693 FILLER_0_21_93
*694 FILLER_0_22_109
*695 FILLER_0_22_121
*696 FILLER_0_22_133
*697 FILLER_0_22_139
*698 FILLER_0_22_141
*699 FILLER_0_22_15
*700 FILLER_0_22_153
*701 FILLER_0_22_165
*702 FILLER_0_22_177
*703 FILLER_0_22_189
*704 FILLER_0_22_195
*705 FILLER_0_22_197
*706 FILLER_0_22_209
*707 FILLER_0_22_221
*708 FILLER_0_22_233
*709 FILLER_0_22_245
*710 FILLER_0_22_251
*711 FILLER_0_22_253
*712 FILLER_0_22_265
*713 FILLER_0_22_27
*714 FILLER_0_22_277
*715 FILLER_0_22_289
*716 FILLER_0_22_29
*717 FILLER_0_22_3
*718 FILLER_0_22_301
*719 FILLER_0_22_307
*720 FILLER_0_22_309
*721 FILLER_0_22_321
*722 FILLER_0_22_333
*723 FILLER_0_22_345
*724 FILLER_0_22_357
*725 FILLER_0_22_363
*726 FILLER_0_22_365
*727 FILLER_0_22_37
*728 FILLER_0_22_377
*729 FILLER_0_22_389
*730 FILLER_0_22_401
*731 FILLER_0_22_47
*732 FILLER_0_22_59
*733 FILLER_0_22_71
*734 FILLER_0_22_83
*735 FILLER_0_22_85
*736 FILLER_0_22_97
*737 FILLER_0_23_105
*738 FILLER_0_23_111
*739 FILLER_0_23_113
*740 FILLER_0_23_125
*741 FILLER_0_23_137
*742 FILLER_0_23_149
*743 FILLER_0_23_15
*744 FILLER_0_23_161
*745 FILLER_0_23_167
*746 FILLER_0_23_169
*747 FILLER_0_23_181
*748 FILLER_0_23_193
*749 FILLER_0_23_205
*750 FILLER_0_23_217
*751 FILLER_0_23_223
*752 FILLER_0_23_225
*753 FILLER_0_23_237
*754 FILLER_0_23_249
*755 FILLER_0_23_261
*756 FILLER_0_23_27
*757 FILLER_0_23_273
*758 FILLER_0_23_279
*759 FILLER_0_23_281
*760 FILLER_0_23_293
*761 FILLER_0_23_3
*762 FILLER_0_23_305
*763 FILLER_0_23_317
*764 FILLER_0_23_329
*765 FILLER_0_23_335
*766 FILLER_0_23_337
*767 FILLER_0_23_349
*768 FILLER_0_23_361
*769 FILLER_0_23_373
*770 FILLER_0_23_385
*771 FILLER_0_23_39
*772 FILLER_0_23_391
*773 FILLER_0_23_393
*774 FILLER_0_23_405
*775 FILLER_0_23_51
*776 FILLER_0_23_55
*777 FILLER_0_23_57
*778 FILLER_0_23_69
*779 FILLER_0_23_81
*780 FILLER_0_23_93
*781 FILLER_0_24_109
*782 FILLER_0_24_121
*783 FILLER_0_24_133
*784 FILLER_0_24_139
*785 FILLER_0_24_141
*786 FILLER_0_24_15
*787 FILLER_0_24_153
*788 FILLER_0_24_165
*789 FILLER_0_24_177
*790 FILLER_0_24_189
*791 FILLER_0_24_195
*792 FILLER_0_24_197
*793 FILLER_0_24_209
*794 FILLER_0_24_221
*795 FILLER_0_24_233
*796 FILLER_0_24_245
*797 FILLER_0_24_251
*798 FILLER_0_24_253
*799 FILLER_0_24_265
*800 FILLER_0_24_27
*801 FILLER_0_24_277
*802 FILLER_0_24_289
*803 FILLER_0_24_29
*804 FILLER_0_24_3
*805 FILLER_0_24_301
*806 FILLER_0_24_307
*807 FILLER_0_24_309
*808 FILLER_0_24_321
*809 FILLER_0_24_333
*810 FILLER_0_24_345
*811 FILLER_0_24_357
*812 FILLER_0_24_363
*813 FILLER_0_24_365
*814 FILLER_0_24_377
*815 FILLER_0_24_389
*816 FILLER_0_24_401
*817 FILLER_0_24_41
*818 FILLER_0_24_53
*819 FILLER_0_24_65
*820 FILLER_0_24_77
*821 FILLER_0_24_83
*822 FILLER_0_24_85
*823 FILLER_0_24_97
*824 FILLER_0_25_105
*825 FILLER_0_25_111
*826 FILLER_0_25_113
*827 FILLER_0_25_125
*828 FILLER_0_25_137
*829 FILLER_0_25_149
*830 FILLER_0_25_15
*831 FILLER_0_25_161
*832 FILLER_0_25_167
*833 FILLER_0_25_169
*834 FILLER_0_25_181
*835 FILLER_0_25_193
*836 FILLER_0_25_205
*837 FILLER_0_25_217
*838 FILLER_0_25_223
*839 FILLER_0_25_225
*840 FILLER_0_25_237
*841 FILLER_0_25_249
*842 FILLER_0_25_261
*843 FILLER_0_25_27
*844 FILLER_0_25_273
*845 FILLER_0_25_279
*846 FILLER_0_25_281
*847 FILLER_0_25_293
*848 FILLER_0_25_3
*849 FILLER_0_25_305
*850 FILLER_0_25_317
*851 FILLER_0_25_329
*852 FILLER_0_25_335
*853 FILLER_0_25_337
*854 FILLER_0_25_349
*855 FILLER_0_25_361
*856 FILLER_0_25_373
*857 FILLER_0_25_385
*858 FILLER_0_25_39
*859 FILLER_0_25_391
*860 FILLER_0_25_393
*861 FILLER_0_25_405
*862 FILLER_0_25_51
*863 FILLER_0_25_55
*864 FILLER_0_25_57
*865 FILLER_0_25_69
*866 FILLER_0_25_81
*867 FILLER_0_25_93
*868 FILLER_0_26_109
*869 FILLER_0_26_121
*870 FILLER_0_26_133
*871 FILLER_0_26_139
*872 FILLER_0_26_141
*873 FILLER_0_26_15
*874 FILLER_0_26_153
*875 FILLER_0_26_165
*876 FILLER_0_26_177
*877 FILLER_0_26_189
*878 FILLER_0_26_195
*879 FILLER_0_26_197
*880 FILLER_0_26_209
*881 FILLER_0_26_221
*882 FILLER_0_26_233
*883 FILLER_0_26_245
*884 FILLER_0_26_251
*885 FILLER_0_26_253
*886 FILLER_0_26_265
*887 FILLER_0_26_27
*888 FILLER_0_26_277
*889 FILLER_0_26_289
*890 FILLER_0_26_29
*891 FILLER_0_26_3
*892 FILLER_0_26_301
*893 FILLER_0_26_307
*894 FILLER_0_26_309
*895 FILLER_0_26_321
*896 FILLER_0_26_333
*897 FILLER_0_26_345
*898 FILLER_0_26_357
*899 FILLER_0_26_363
*900 FILLER_0_26_365
*901 FILLER_0_26_377
*902 FILLER_0_26_389
*903 FILLER_0_26_401
*904 FILLER_0_26_41
*905 FILLER_0_26_53
*906 FILLER_0_26_65
*907 FILLER_0_26_77
*908 FILLER_0_26_83
*909 FILLER_0_26_85
*910 FILLER_0_26_97
*911 FILLER_0_27_105
*912 FILLER_0_27_111
*913 FILLER_0_27_113
*914 FILLER_0_27_125
*915 FILLER_0_27_137
*916 FILLER_0_27_149
*917 FILLER_0_27_15
*918 FILLER_0_27_161
*919 FILLER_0_27_189
*920 FILLER_0_27_201
*921 FILLER_0_27_213
*922 FILLER_0_27_221
*923 FILLER_0_27_225
*924 FILLER_0_27_237
*925 FILLER_0_27_249
*926 FILLER_0_27_261
*927 FILLER_0_27_27
*928 FILLER_0_27_273
*929 FILLER_0_27_279
*930 FILLER_0_27_281
*931 FILLER_0_27_293
*932 FILLER_0_27_3
*933 FILLER_0_27_305
*934 FILLER_0_27_317
*935 FILLER_0_27_329
*936 FILLER_0_27_335
*937 FILLER_0_27_337
*938 FILLER_0_27_349
*939 FILLER_0_27_361
*940 FILLER_0_27_373
*941 FILLER_0_27_385
*942 FILLER_0_27_39
*943 FILLER_0_27_391
*944 FILLER_0_27_393
*945 FILLER_0_27_405
*946 FILLER_0_27_51
*947 FILLER_0_27_55
*948 FILLER_0_27_57
*949 FILLER_0_27_69
*950 FILLER_0_27_81
*951 FILLER_0_27_93
*952 FILLER_0_28_109
*953 FILLER_0_28_121
*954 FILLER_0_28_133
*955 FILLER_0_28_139
*956 FILLER_0_28_141
*957 FILLER_0_28_15
*958 FILLER_0_28_153
*959 FILLER_0_28_165
*960 FILLER_0_28_177
*961 FILLER_0_28_189
*962 FILLER_0_28_195
*963 FILLER_0_28_197
*964 FILLER_0_28_209
*965 FILLER_0_28_221
*966 FILLER_0_28_233
*967 FILLER_0_28_245
*968 FILLER_0_28_251
*969 FILLER_0_28_253
*970 FILLER_0_28_265
*971 FILLER_0_28_27
*972 FILLER_0_28_277
*973 FILLER_0_28_289
*974 FILLER_0_28_29
*975 FILLER_0_28_3
*976 FILLER_0_28_301
*977 FILLER_0_28_307
*978 FILLER_0_28_309
*979 FILLER_0_28_321
*980 FILLER_0_28_333
*981 FILLER_0_28_345
*982 FILLER_0_28_357
*983 FILLER_0_28_363
*984 FILLER_0_28_365
*985 FILLER_0_28_377
*986 FILLER_0_28_389
*987 FILLER_0_28_401
*988 FILLER_0_28_41
*989 FILLER_0_28_53
*990 FILLER_0_28_65
*991 FILLER_0_28_77
*992 FILLER_0_28_83
*993 FILLER_0_28_85
*994 FILLER_0_28_97
*995 FILLER_0_29_111
*996 FILLER_0_29_113
*997 FILLER_0_29_125
*998 FILLER_0_29_137
*999 FILLER_0_29_149
*1000 FILLER_0_29_15
*1001 FILLER_0_29_161
*1002 FILLER_0_29_167
*1003 FILLER_0_29_169
*1004 FILLER_0_29_181
*1005 FILLER_0_29_193
*1006 FILLER_0_29_205
*1007 FILLER_0_29_217
*1008 FILLER_0_29_223
*1009 FILLER_0_29_225
*1010 FILLER_0_29_237
*1011 FILLER_0_29_252
*1012 FILLER_0_29_264
*1013 FILLER_0_29_27
*1014 FILLER_0_29_276
*1015 FILLER_0_29_281
*1016 FILLER_0_29_293
*1017 FILLER_0_29_3
*1018 FILLER_0_29_305
*1019 FILLER_0_29_317
*1020 FILLER_0_29_329
*1021 FILLER_0_29_335
*1022 FILLER_0_29_337
*1023 FILLER_0_29_349
*1024 FILLER_0_29_361
*1025 FILLER_0_29_373
*1026 FILLER_0_29_385
*1027 FILLER_0_29_39
*1028 FILLER_0_29_391
*1029 FILLER_0_29_393
*1030 FILLER_0_29_405
*1031 FILLER_0_29_51
*1032 FILLER_0_29_55
*1033 FILLER_0_29_63
*1034 FILLER_0_29_75
*1035 FILLER_0_29_87
*1036 FILLER_0_29_99
*1037 FILLER_0_2_109
*1038 FILLER_0_2_121
*1039 FILLER_0_2_133
*1040 FILLER_0_2_139
*1041 FILLER_0_2_141
*1042 FILLER_0_2_15
*1043 FILLER_0_2_153
*1044 FILLER_0_2_165
*1045 FILLER_0_2_177
*1046 FILLER_0_2_189
*1047 FILLER_0_2_195
*1048 FILLER_0_2_197
*1049 FILLER_0_2_209
*1050 FILLER_0_2_221
*1051 FILLER_0_2_233
*1052 FILLER_0_2_245
*1053 FILLER_0_2_251
*1054 FILLER_0_2_253
*1055 FILLER_0_2_265
*1056 FILLER_0_2_27
*1057 FILLER_0_2_277
*1058 FILLER_0_2_289
*1059 FILLER_0_2_29
*1060 FILLER_0_2_3
*1061 FILLER_0_2_301
*1062 FILLER_0_2_307
*1063 FILLER_0_2_309
*1064 FILLER_0_2_321
*1065 FILLER_0_2_333
*1066 FILLER_0_2_345
*1067 FILLER_0_2_357
*1068 FILLER_0_2_363
*1069 FILLER_0_2_365
*1070 FILLER_0_2_377
*1071 FILLER_0_2_389
*1072 FILLER_0_2_401
*1073 FILLER_0_2_41
*1074 FILLER_0_2_53
*1075 FILLER_0_2_65
*1076 FILLER_0_2_77
*1077 FILLER_0_2_83
*1078 FILLER_0_2_85
*1079 FILLER_0_2_97
*1080 FILLER_0_30_109
*1081 FILLER_0_30_121
*1082 FILLER_0_30_133
*1083 FILLER_0_30_139
*1084 FILLER_0_30_141
*1085 FILLER_0_30_15
*1086 FILLER_0_30_153
*1087 FILLER_0_30_165
*1088 FILLER_0_30_177
*1089 FILLER_0_30_189
*1090 FILLER_0_30_195
*1091 FILLER_0_30_197
*1092 FILLER_0_30_209
*1093 FILLER_0_30_221
*1094 FILLER_0_30_233
*1095 FILLER_0_30_245
*1096 FILLER_0_30_251
*1097 FILLER_0_30_253
*1098 FILLER_0_30_265
*1099 FILLER_0_30_27
*1100 FILLER_0_30_277
*1101 FILLER_0_30_289
*1102 FILLER_0_30_29
*1103 FILLER_0_30_3
*1104 FILLER_0_30_301
*1105 FILLER_0_30_307
*1106 FILLER_0_30_309
*1107 FILLER_0_30_321
*1108 FILLER_0_30_333
*1109 FILLER_0_30_345
*1110 FILLER_0_30_357
*1111 FILLER_0_30_363
*1112 FILLER_0_30_365
*1113 FILLER_0_30_377
*1114 FILLER_0_30_389
*1115 FILLER_0_30_401
*1116 FILLER_0_30_41
*1117 FILLER_0_30_53
*1118 FILLER_0_30_65
*1119 FILLER_0_30_77
*1120 FILLER_0_30_83
*1121 FILLER_0_30_85
*1122 FILLER_0_30_97
*1123 FILLER_0_31_105
*1124 FILLER_0_31_111
*1125 FILLER_0_31_113
*1126 FILLER_0_31_125
*1127 FILLER_0_31_137
*1128 FILLER_0_31_149
*1129 FILLER_0_31_15
*1130 FILLER_0_31_161
*1131 FILLER_0_31_167
*1132 FILLER_0_31_169
*1133 FILLER_0_31_181
*1134 FILLER_0_31_193
*1135 FILLER_0_31_205
*1136 FILLER_0_31_217
*1137 FILLER_0_31_223
*1138 FILLER_0_31_225
*1139 FILLER_0_31_237
*1140 FILLER_0_31_249
*1141 FILLER_0_31_255
*1142 FILLER_0_31_258
*1143 FILLER_0_31_262
*1144 FILLER_0_31_27
*1145 FILLER_0_31_270
*1146 FILLER_0_31_278
*1147 FILLER_0_31_281
*1148 FILLER_0_31_293
*1149 FILLER_0_31_3
*1150 FILLER_0_31_305
*1151 FILLER_0_31_317
*1152 FILLER_0_31_329
*1153 FILLER_0_31_335
*1154 FILLER_0_31_337
*1155 FILLER_0_31_349
*1156 FILLER_0_31_361
*1157 FILLER_0_31_373
*1158 FILLER_0_31_385
*1159 FILLER_0_31_39
*1160 FILLER_0_31_391
*1161 FILLER_0_31_393
*1162 FILLER_0_31_405
*1163 FILLER_0_31_51
*1164 FILLER_0_31_55
*1165 FILLER_0_31_57
*1166 FILLER_0_31_69
*1167 FILLER_0_31_81
*1168 FILLER_0_31_93
*1169 FILLER_0_32_109
*1170 FILLER_0_32_121
*1171 FILLER_0_32_133
*1172 FILLER_0_32_139
*1173 FILLER_0_32_15
*1174 FILLER_0_32_160
*1175 FILLER_0_32_172
*1176 FILLER_0_32_184
*1177 FILLER_0_32_197
*1178 FILLER_0_32_209
*1179 FILLER_0_32_221
*1180 FILLER_0_32_233
*1181 FILLER_0_32_245
*1182 FILLER_0_32_251
*1183 FILLER_0_32_253
*1184 FILLER_0_32_265
*1185 FILLER_0_32_27
*1186 FILLER_0_32_277
*1187 FILLER_0_32_289
*1188 FILLER_0_32_29
*1189 FILLER_0_32_3
*1190 FILLER_0_32_301
*1191 FILLER_0_32_307
*1192 FILLER_0_32_309
*1193 FILLER_0_32_321
*1194 FILLER_0_32_333
*1195 FILLER_0_32_345
*1196 FILLER_0_32_357
*1197 FILLER_0_32_363
*1198 FILLER_0_32_365
*1199 FILLER_0_32_377
*1200 FILLER_0_32_389
*1201 FILLER_0_32_395
*1202 FILLER_0_32_398
*1203 FILLER_0_32_406
*1204 FILLER_0_32_41
*1205 FILLER_0_32_53
*1206 FILLER_0_32_65
*1207 FILLER_0_32_77
*1208 FILLER_0_32_83
*1209 FILLER_0_32_85
*1210 FILLER_0_32_97
*1211 FILLER_0_33_105
*1212 FILLER_0_33_111
*1213 FILLER_0_33_113
*1214 FILLER_0_33_125
*1215 FILLER_0_33_137
*1216 FILLER_0_33_149
*1217 FILLER_0_33_15
*1218 FILLER_0_33_161
*1219 FILLER_0_33_167
*1220 FILLER_0_33_169
*1221 FILLER_0_33_181
*1222 FILLER_0_33_193
*1223 FILLER_0_33_205
*1224 FILLER_0_33_217
*1225 FILLER_0_33_223
*1226 FILLER_0_33_225
*1227 FILLER_0_33_237
*1228 FILLER_0_33_249
*1229 FILLER_0_33_261
*1230 FILLER_0_33_27
*1231 FILLER_0_33_273
*1232 FILLER_0_33_279
*1233 FILLER_0_33_297
*1234 FILLER_0_33_3
*1235 FILLER_0_33_309
*1236 FILLER_0_33_321
*1237 FILLER_0_33_337
*1238 FILLER_0_33_349
*1239 FILLER_0_33_361
*1240 FILLER_0_33_373
*1241 FILLER_0_33_385
*1242 FILLER_0_33_39
*1243 FILLER_0_33_391
*1244 FILLER_0_33_393
*1245 FILLER_0_33_399
*1246 FILLER_0_33_402
*1247 FILLER_0_33_51
*1248 FILLER_0_33_55
*1249 FILLER_0_33_57
*1250 FILLER_0_33_69
*1251 FILLER_0_33_81
*1252 FILLER_0_33_93
*1253 FILLER_0_34_109
*1254 FILLER_0_34_121
*1255 FILLER_0_34_133
*1256 FILLER_0_34_139
*1257 FILLER_0_34_141
*1258 FILLER_0_34_149
*1259 FILLER_0_34_15
*1260 FILLER_0_34_170
*1261 FILLER_0_34_182
*1262 FILLER_0_34_194
*1263 FILLER_0_34_197
*1264 FILLER_0_34_209
*1265 FILLER_0_34_221
*1266 FILLER_0_34_233
*1267 FILLER_0_34_245
*1268 FILLER_0_34_251
*1269 FILLER_0_34_253
*1270 FILLER_0_34_265
*1271 FILLER_0_34_27
*1272 FILLER_0_34_277
*1273 FILLER_0_34_289
*1274 FILLER_0_34_29
*1275 FILLER_0_34_3
*1276 FILLER_0_34_301
*1277 FILLER_0_34_307
*1278 FILLER_0_34_309
*1279 FILLER_0_34_321
*1280 FILLER_0_34_333
*1281 FILLER_0_34_345
*1282 FILLER_0_34_357
*1283 FILLER_0_34_363
*1284 FILLER_0_34_365
*1285 FILLER_0_34_377
*1286 FILLER_0_34_389
*1287 FILLER_0_34_401
*1288 FILLER_0_34_41
*1289 FILLER_0_34_53
*1290 FILLER_0_34_65
*1291 FILLER_0_34_85
*1292 FILLER_0_34_97
*1293 FILLER_0_35_105
*1294 FILLER_0_35_111
*1295 FILLER_0_35_113
*1296 FILLER_0_35_125
*1297 FILLER_0_35_137
*1298 FILLER_0_35_149
*1299 FILLER_0_35_15
*1300 FILLER_0_35_161
*1301 FILLER_0_35_167
*1302 FILLER_0_35_169
*1303 FILLER_0_35_181
*1304 FILLER_0_35_193
*1305 FILLER_0_35_205
*1306 FILLER_0_35_217
*1307 FILLER_0_35_223
*1308 FILLER_0_35_225
*1309 FILLER_0_35_237
*1310 FILLER_0_35_249
*1311 FILLER_0_35_261
*1312 FILLER_0_35_27
*1313 FILLER_0_35_273
*1314 FILLER_0_35_279
*1315 FILLER_0_35_281
*1316 FILLER_0_35_293
*1317 FILLER_0_35_3
*1318 FILLER_0_35_305
*1319 FILLER_0_35_317
*1320 FILLER_0_35_329
*1321 FILLER_0_35_335
*1322 FILLER_0_35_337
*1323 FILLER_0_35_349
*1324 FILLER_0_35_361
*1325 FILLER_0_35_373
*1326 FILLER_0_35_385
*1327 FILLER_0_35_39
*1328 FILLER_0_35_391
*1329 FILLER_0_35_393
*1330 FILLER_0_35_405
*1331 FILLER_0_35_51
*1332 FILLER_0_35_55
*1333 FILLER_0_35_57
*1334 FILLER_0_35_69
*1335 FILLER_0_35_81
*1336 FILLER_0_35_93
*1337 FILLER_0_36_103
*1338 FILLER_0_36_112
*1339 FILLER_0_36_124
*1340 FILLER_0_36_136
*1341 FILLER_0_36_141
*1342 FILLER_0_36_15
*1343 FILLER_0_36_153
*1344 FILLER_0_36_165
*1345 FILLER_0_36_177
*1346 FILLER_0_36_189
*1347 FILLER_0_36_195
*1348 FILLER_0_36_197
*1349 FILLER_0_36_209
*1350 FILLER_0_36_221
*1351 FILLER_0_36_233
*1352 FILLER_0_36_245
*1353 FILLER_0_36_251
*1354 FILLER_0_36_253
*1355 FILLER_0_36_265
*1356 FILLER_0_36_27
*1357 FILLER_0_36_277
*1358 FILLER_0_36_289
*1359 FILLER_0_36_29
*1360 FILLER_0_36_3
*1361 FILLER_0_36_301
*1362 FILLER_0_36_307
*1363 FILLER_0_36_309
*1364 FILLER_0_36_321
*1365 FILLER_0_36_333
*1366 FILLER_0_36_345
*1367 FILLER_0_36_357
*1368 FILLER_0_36_363
*1369 FILLER_0_36_365
*1370 FILLER_0_36_377
*1371 FILLER_0_36_389
*1372 FILLER_0_36_401
*1373 FILLER_0_36_41
*1374 FILLER_0_36_53
*1375 FILLER_0_36_65
*1376 FILLER_0_36_77
*1377 FILLER_0_36_83
*1378 FILLER_0_36_85
*1379 FILLER_0_36_97
*1380 FILLER_0_37_105
*1381 FILLER_0_37_111
*1382 FILLER_0_37_113
*1383 FILLER_0_37_125
*1384 FILLER_0_37_137
*1385 FILLER_0_37_149
*1386 FILLER_0_37_15
*1387 FILLER_0_37_161
*1388 FILLER_0_37_167
*1389 FILLER_0_37_169
*1390 FILLER_0_37_181
*1391 FILLER_0_37_193
*1392 FILLER_0_37_205
*1393 FILLER_0_37_217
*1394 FILLER_0_37_223
*1395 FILLER_0_37_225
*1396 FILLER_0_37_237
*1397 FILLER_0_37_249
*1398 FILLER_0_37_255
*1399 FILLER_0_37_259
*1400 FILLER_0_37_27
*1401 FILLER_0_37_271
*1402 FILLER_0_37_279
*1403 FILLER_0_37_281
*1404 FILLER_0_37_293
*1405 FILLER_0_37_3
*1406 FILLER_0_37_305
*1407 FILLER_0_37_317
*1408 FILLER_0_37_329
*1409 FILLER_0_37_335
*1410 FILLER_0_37_337
*1411 FILLER_0_37_349
*1412 FILLER_0_37_361
*1413 FILLER_0_37_373
*1414 FILLER_0_37_385
*1415 FILLER_0_37_39
*1416 FILLER_0_37_391
*1417 FILLER_0_37_393
*1418 FILLER_0_37_399
*1419 FILLER_0_37_402
*1420 FILLER_0_37_51
*1421 FILLER_0_37_55
*1422 FILLER_0_37_57
*1423 FILLER_0_37_69
*1424 FILLER_0_37_81
*1425 FILLER_0_37_93
*1426 FILLER_0_38_109
*1427 FILLER_0_38_121
*1428 FILLER_0_38_133
*1429 FILLER_0_38_139
*1430 FILLER_0_38_141
*1431 FILLER_0_38_15
*1432 FILLER_0_38_151
*1433 FILLER_0_38_155
*1434 FILLER_0_38_167
*1435 FILLER_0_38_179
*1436 FILLER_0_38_191
*1437 FILLER_0_38_195
*1438 FILLER_0_38_197
*1439 FILLER_0_38_209
*1440 FILLER_0_38_221
*1441 FILLER_0_38_233
*1442 FILLER_0_38_245
*1443 FILLER_0_38_251
*1444 FILLER_0_38_253
*1445 FILLER_0_38_265