*SPEF "ieee 1481-1999"
*DESIGN "semi_cpu_top"
*DATE "12:07:44 Sunday June 08, 2025"
*VENDOR "The OpenROAD Project"
*PROGRAM "OpenROAD"
*VERSION "b16bda7e82721d10566ff7e2b68f1ff0be9f9e38"
*DESIGN_FLOW "NAME_SCOPE LOCAL" "PIN_CAP NONE"
*DIVIDER /
*DELIMITER :
*BUS_DELIMITER []
*T_UNIT 1 NS
*C_UNIT 1 PF
*R_UNIT 1 OHM
*L_UNIT 1 HENRY

*NAME_MAP
*3 an[0]
*4 an[1]
*5 an[2]
*6 an[3]
*7 an[4]
*8 an[5]
*9 an[6]
*10 an[7]
*11 clk
*12 control
*13 reset
*14 net9
*15 net10
*16 net11
*17 net12
*18 net13
*19 net14
*20 net15
*21 _00_
*22 _01_
*23 _02_
*24 _03_
*25 _04_
*26 _05_
*27 _06_
*28 _07_
*29 _08_
*30 _09_
*31 _10_
*32 _11_
*33 _12_
*34 _13_
*35 _14_
*36 _15_
*37 _16_
*38 _17_
*39 _18_
*40 _19_
*41 _20_
*42 _21_
*43 _22_
*44 _23_
*45 _24_
*46 _25_
*47 _26_
*48 _27_
*49 _28_
*50 _29_
*51 _30_
*52 clknet_0_clk
*53 clknet_1_0__leaf_clk
*54 clknet_1_1__leaf_clk
*55 display_inst\.clk_div\[0\]
*56 display_inst\.clk_div\[1\]
*57 display_inst\.clk_div\[2\]
*58 display_inst\.clk_div\[3\]
*59 display_inst\.clk_div\[4\]
*60 display_inst\.clk_div\[5\]
*61 display_inst\.clk_div\[6\]
*62 display_inst\.clk_div\[7\]
*63 display_inst\.clk_div\[8\]
*64 display_inst\.display_counter\[0\]
*65 display_inst\.display_counter\[1\]
*66 display_inst\.display_counter\[2\]
*67 net1
*68 net2
*69 net3
*70 net4
*71 net5
*72 net6
*73 net7
*74 net8
*75 ANTENNA_1
*76 ANTENNA_2
*77 ANTENNA_3
*78 ANTENNA_4
*79 ANTENNA_5
*80 ANTENNA_6
*81 ANTENNA_7
*82 ANTENNA_8
*83 ANTENNA_9
*84 FILLER_0_0_109
*85 FILLER_0_0_113
*86 FILLER_0_0_125
*87 FILLER_0_0_137
*88 FILLER_0_0_141
*89 FILLER_0_0_15
*90 FILLER_0_0_153
*91 FILLER_0_0_165
*92 FILLER_0_0_169
*93 FILLER_0_0_181
*94 FILLER_0_0_193
*95 FILLER_0_0_197
*96 FILLER_0_0_209
*97 FILLER_0_0_221
*98 FILLER_0_0_225
*99 FILLER_0_0_237
*100 FILLER_0_0_249
*101 FILLER_0_0_253
*102 FILLER_0_0_265
*103 FILLER_0_0_27
*104 FILLER_0_0_277
*105 FILLER_0_0_281
*106 FILLER_0_0_29
*107 FILLER_0_0_293
*108 FILLER_0_0_3
*109 FILLER_0_0_305
*110 FILLER_0_0_309
*111 FILLER_0_0_321
*112 FILLER_0_0_333
*113 FILLER_0_0_337
*114 FILLER_0_0_349
*115 FILLER_0_0_361
*116 FILLER_0_0_365
*117 FILLER_0_0_377
*118 FILLER_0_0_389
*119 FILLER_0_0_393
*120 FILLER_0_0_405
*121 FILLER_0_0_41
*122 FILLER_0_0_53
*123 FILLER_0_0_57
*124 FILLER_0_0_69
*125 FILLER_0_0_81
*126 FILLER_0_0_85
*127 FILLER_0_0_97
*128 FILLER_0_10_109
*129 FILLER_0_10_121
*130 FILLER_0_10_133
*131 FILLER_0_10_139
*132 FILLER_0_10_141
*133 FILLER_0_10_15
*134 FILLER_0_10_153
*135 FILLER_0_10_165
*136 FILLER_0_10_177
*137 FILLER_0_10_189
*138 FILLER_0_10_195
*139 FILLER_0_10_197
*140 FILLER_0_10_203
*141 FILLER_0_10_215
*142 FILLER_0_10_227
*143 FILLER_0_10_239
*144 FILLER_0_10_251
*145 FILLER_0_10_253
*146 FILLER_0_10_265
*147 FILLER_0_10_27
*148 FILLER_0_10_277
*149 FILLER_0_10_289
*150 FILLER_0_10_29
*151 FILLER_0_10_3
*152 FILLER_0_10_301
*153 FILLER_0_10_307
*154 FILLER_0_10_309
*155 FILLER_0_10_321
*156 FILLER_0_10_333
*157 FILLER_0_10_345
*158 FILLER_0_10_357
*159 FILLER_0_10_363
*160 FILLER_0_10_365
*161 FILLER_0_10_377
*162 FILLER_0_10_389
*163 FILLER_0_10_401
*164 FILLER_0_10_41
*165 FILLER_0_10_53
*166 FILLER_0_10_65
*167 FILLER_0_10_77
*168 FILLER_0_10_83
*169 FILLER_0_10_85
*170 FILLER_0_10_97
*171 FILLER_0_11_105
*172 FILLER_0_11_111
*173 FILLER_0_11_113
*174 FILLER_0_11_125
*175 FILLER_0_11_137
*176 FILLER_0_11_149
*177 FILLER_0_11_15
*178 FILLER_0_11_161
*179 FILLER_0_11_167
*180 FILLER_0_11_169
*181 FILLER_0_11_181
*182 FILLER_0_11_193
*183 FILLER_0_11_205
*184 FILLER_0_11_217
*185 FILLER_0_11_223
*186 FILLER_0_11_225
*187 FILLER_0_11_237
*188 FILLER_0_11_245
*189 FILLER_0_11_264
*190 FILLER_0_11_27
*191 FILLER_0_11_276
*192 FILLER_0_11_281
*193 FILLER_0_11_293
*194 FILLER_0_11_3
*195 FILLER_0_11_305
*196 FILLER_0_11_317
*197 FILLER_0_11_329
*198 FILLER_0_11_335
*199 FILLER_0_11_337
*200 FILLER_0_11_349
*201 FILLER_0_11_361
*202 FILLER_0_11_373
*203 FILLER_0_11_385
*204 FILLER_0_11_39
*205 FILLER_0_11_391
*206 FILLER_0_11_393
*207 FILLER_0_11_405
*208 FILLER_0_11_51
*209 FILLER_0_11_55
*210 FILLER_0_11_57
*211 FILLER_0_11_69
*212 FILLER_0_11_81
*213 FILLER_0_11_93
*214 FILLER_0_12_109
*215 FILLER_0_12_121
*216 FILLER_0_12_133
*217 FILLER_0_12_139
*218 FILLER_0_12_141
*219 FILLER_0_12_15
*220 FILLER_0_12_153
*221 FILLER_0_12_165
*222 FILLER_0_12_177
*223 FILLER_0_12_189
*224 FILLER_0_12_195
*225 FILLER_0_12_197
*226 FILLER_0_12_209
*227 FILLER_0_12_221
*228 FILLER_0_12_233
*229 FILLER_0_12_245
*230 FILLER_0_12_251
*231 FILLER_0_12_253
*232 FILLER_0_12_265
*233 FILLER_0_12_27
*234 FILLER_0_12_277
*235 FILLER_0_12_289
*236 FILLER_0_12_29
*237 FILLER_0_12_3
*238 FILLER_0_12_301
*239 FILLER_0_12_307
*240 FILLER_0_12_309
*241 FILLER_0_12_321
*242 FILLER_0_12_333
*243 FILLER_0_12_345
*244 FILLER_0_12_357
*245 FILLER_0_12_363
*246 FILLER_0_12_365
*247 FILLER_0_12_377
*248 FILLER_0_12_389
*249 FILLER_0_12_401
*250 FILLER_0_12_41
*251 FILLER_0_12_53
*252 FILLER_0_12_65
*253 FILLER_0_12_77
*254 FILLER_0_12_83
*255 FILLER_0_12_85
*256 FILLER_0_12_97
*257 FILLER_0_13_105
*258 FILLER_0_13_111
*259 FILLER_0_13_113
*260 FILLER_0_13_125
*261 FILLER_0_13_137
*262 FILLER_0_13_149
*263 FILLER_0_13_15
*264 FILLER_0_13_161
*265 FILLER_0_13_167
*266 FILLER_0_13_169
*267 FILLER_0_13_181
*268 FILLER_0_13_193
*269 FILLER_0_13_205
*270 FILLER_0_13_217
*271 FILLER_0_13_223
*272 FILLER_0_13_225
*273 FILLER_0_13_237
*274 FILLER_0_13_249
*275 FILLER_0_13_261
*276 FILLER_0_13_27
*277 FILLER_0_13_273
*278 FILLER_0_13_279
*279 FILLER_0_13_281
*280 FILLER_0_13_293
*281 FILLER_0_13_3
*282 FILLER_0_13_305
*283 FILLER_0_13_317
*284 FILLER_0_13_329
*285 FILLER_0_13_335
*286 FILLER_0_13_337
*287 FILLER_0_13_349
*288 FILLER_0_13_361
*289 FILLER_0_13_373
*290 FILLER_0_13_385
*291 FILLER_0_13_39
*292 FILLER_0_13_391
*293 FILLER_0_13_393
*294 FILLER_0_13_399
*295 FILLER_0_13_403
*296 FILLER_0_13_51
*297 FILLER_0_13_55
*298 FILLER_0_13_57
*299 FILLER_0_13_69
*300 FILLER_0_13_81
*301 FILLER_0_13_93
*302 FILLER_0_14_109
*303 FILLER_0_14_121
*304 FILLER_0_14_133
*305 FILLER_0_14_139
*306 FILLER_0_14_141
*307 FILLER_0_14_15
*308 FILLER_0_14_153
*309 FILLER_0_14_165
*310 FILLER_0_14_177
*311 FILLER_0_14_189
*312 FILLER_0_14_195
*313 FILLER_0_14_197
*314 FILLER_0_14_209
*315 FILLER_0_14_221
*316 FILLER_0_14_233
*317 FILLER_0_14_245
*318 FILLER_0_14_251
*319 FILLER_0_14_253
*320 FILLER_0_14_265
*321 FILLER_0_14_27
*322 FILLER_0_14_277
*323 FILLER_0_14_289
*324 FILLER_0_14_29
*325 FILLER_0_14_3
*326 FILLER_0_14_301
*327 FILLER_0_14_307
*328 FILLER_0_14_309
*329 FILLER_0_14_321
*330 FILLER_0_14_333
*331 FILLER_0_14_345
*332 FILLER_0_14_357
*333 FILLER_0_14_363
*334 FILLER_0_14_365
*335 FILLER_0_14_377
*336 FILLER_0_14_389
*337 FILLER_0_14_401
*338 FILLER_0_14_41
*339 FILLER_0_14_53
*340 FILLER_0_14_65
*341 FILLER_0_14_77
*342 FILLER_0_14_83
*343 FILLER_0_14_85
*344 FILLER_0_14_97
*345 FILLER_0_15_105
*346 FILLER_0_15_111
*347 FILLER_0_15_113
*348 FILLER_0_15_125
*349 FILLER_0_15_137
*350 FILLER_0_15_149
*351 FILLER_0_15_15
*352 FILLER_0_15_161
*353 FILLER_0_15_167
*354 FILLER_0_15_169
*355 FILLER_0_15_181
*356 FILLER_0_15_193
*357 FILLER_0_15_205
*358 FILLER_0_15_217
*359 FILLER_0_15_223
*360 FILLER_0_15_225
*361 FILLER_0_15_237
*362 FILLER_0_15_249
*363 FILLER_0_15_261
*364 FILLER_0_15_27
*365 FILLER_0_15_273
*366 FILLER_0_15_279
*367 FILLER_0_15_281
*368 FILLER_0_15_293
*369 FILLER_0_15_3
*370 FILLER_0_15_305
*371 FILLER_0_15_317
*372 FILLER_0_15_329
*373 FILLER_0_15_335
*374 FILLER_0_15_337
*375 FILLER_0_15_349
*376 FILLER_0_15_361
*377 FILLER_0_15_373
*378 FILLER_0_15_385
*379 FILLER_0_15_39
*380 FILLER_0_15_391
*381 FILLER_0_15_393
*382 FILLER_0_15_401
*383 FILLER_0_15_51
*384 FILLER_0_15_55
*385 FILLER_0_15_57
*386 FILLER_0_15_69
*387 FILLER_0_15_81
*388 FILLER_0_15_93
*389 FILLER_0_16_109
*390 FILLER_0_16_121
*391 FILLER_0_16_133
*392 FILLER_0_16_139
*393 FILLER_0_16_141
*394 FILLER_0_16_15
*395 FILLER_0_16_153
*396 FILLER_0_16_165
*397 FILLER_0_16_177
*398 FILLER_0_16_189
*399 FILLER_0_16_195
*400 FILLER_0_16_197
*401 FILLER_0_16_209
*402 FILLER_0_16_221
*403 FILLER_0_16_233
*404 FILLER_0_16_245
*405 FILLER_0_16_251
*406 FILLER_0_16_253
*407 FILLER_0_16_265
*408 FILLER_0_16_27
*409 FILLER_0_16_277
*410 FILLER_0_16_289
*411 FILLER_0_16_29
*412 FILLER_0_16_3
*413 FILLER_0_16_301
*414 FILLER_0_16_307
*415 FILLER_0_16_309
*416 FILLER_0_16_321
*417 FILLER_0_16_333
*418 FILLER_0_16_345
*419 FILLER_0_16_357
*420 FILLER_0_16_363
*421 FILLER_0_16_365
*422 FILLER_0_16_377
*423 FILLER_0_16_389
*424 FILLER_0_16_401
*425 FILLER_0_16_41
*426 FILLER_0_16_53
*427 FILLER_0_16_65
*428 FILLER_0_16_77
*429 FILLER_0_16_83
*430 FILLER_0_16_85
*431 FILLER_0_16_97
*432 FILLER_0_17_105
*433 FILLER_0_17_111
*434 FILLER_0_17_113
*435 FILLER_0_17_125
*436 FILLER_0_17_137
*437 FILLER_0_17_149
*438 FILLER_0_17_15
*439 FILLER_0_17_161
*440 FILLER_0_17_167
*441 FILLER_0_17_169
*442 FILLER_0_17_181
*443 FILLER_0_17_193
*444 FILLER_0_17_205
*445 FILLER_0_17_217
*446 FILLER_0_17_223
*447 FILLER_0_17_225
*448 FILLER_0_17_237
*449 FILLER_0_17_249
*450 FILLER_0_17_261
*451 FILLER_0_17_27
*452 FILLER_0_17_273
*453 FILLER_0_17_279
*454 FILLER_0_17_281
*455 FILLER_0_17_296
*456 FILLER_0_17_3
*457 FILLER_0_17_308
*458 FILLER_0_17_320
*459 FILLER_0_17_332
*460 FILLER_0_17_337
*461 FILLER_0_17_349
*462 FILLER_0_17_361
*463 FILLER_0_17_373
*464 FILLER_0_17_385
*465 FILLER_0_17_39
*466 FILLER_0_17_391
*467 FILLER_0_17_393
*468 FILLER_0_17_405
*469 FILLER_0_17_51
*470 FILLER_0_17_55
*471 FILLER_0_17_57
*472 FILLER_0_17_69
*473 FILLER_0_17_81
*474 FILLER_0_17_93
*475 FILLER_0_18_109
*476 FILLER_0_18_121
*477 FILLER_0_18_133
*478 FILLER_0_18_139
*479 FILLER_0_18_141
*480 FILLER_0_18_15
*481 FILLER_0_18_153
*482 FILLER_0_18_165
*483 FILLER_0_18_177
*484 FILLER_0_18_189
*485 FILLER_0_18_195
*486 FILLER_0_18_197
*487 FILLER_0_18_209
*488 FILLER_0_18_221
*489 FILLER_0_18_233
*490 FILLER_0_18_245
*491 FILLER_0_18_251
*492 FILLER_0_18_253
*493 FILLER_0_18_265
*494 FILLER_0_18_27
*495 FILLER_0_18_277
*496 FILLER_0_18_289
*497 FILLER_0_18_29
*498 FILLER_0_18_3
*499 FILLER_0_18_301
*500 FILLER_0_18_307
*501 FILLER_0_18_309
*502 FILLER_0_18_321
*503 FILLER_0_18_333
*504 FILLER_0_18_345
*505 FILLER_0_18_357
*506 FILLER_0_18_363
*507 FILLER_0_18_365
*508 FILLER_0_18_377
*509 FILLER_0_18_389
*510 FILLER_0_18_401
*511 FILLER_0_18_41
*512 FILLER_0_18_53
*513 FILLER_0_18_65
*514 FILLER_0_18_77
*515 FILLER_0_18_83
*516 FILLER_0_18_85
*517 FILLER_0_18_97
*518 FILLER_0_19_105
*519 FILLER_0_19_111
*520 FILLER_0_19_113
*521 FILLER_0_19_125
*522 FILLER_0_19_137
*523 FILLER_0_19_149
*524 FILLER_0_19_15
*525 FILLER_0_19_161
*526 FILLER_0_19_167
*527 FILLER_0_19_169
*528 FILLER_0_19_181
*529 FILLER_0_19_193
*530 FILLER_0_19_205
*531 FILLER_0_19_217
*532 FILLER_0_19_223
*533 FILLER_0_19_233
*534 FILLER_0_19_237
*535 FILLER_0_19_249
*536 FILLER_0_19_261
*537 FILLER_0_19_27
*538 FILLER_0_19_273
*539 FILLER_0_19_279
*540 FILLER_0_19_281
*541 FILLER_0_19_293
*542 FILLER_0_19_3
*543 FILLER_0_19_305
*544 FILLER_0_19_317
*545 FILLER_0_19_329
*546 FILLER_0_19_335
*547 FILLER_0_19_337
*548 FILLER_0_19_349
*549 FILLER_0_19_361
*550 FILLER_0_19_373
*551 FILLER_0_19_385
*552 FILLER_0_19_39
*553 FILLER_0_19_390
*554 FILLER_0_19_396
*555 FILLER_0_19_51
*556 FILLER_0_19_55
*557 FILLER_0_19_57
*558 FILLER_0_19_69
*559 FILLER_0_19_81
*560 FILLER_0_19_93
*561 FILLER_0_1_105
*562 FILLER_0_1_111
*563 FILLER_0_1_113
*564 FILLER_0_1_120
*565 FILLER_0_1_132
*566 FILLER_0_1_144
*567 FILLER_0_1_15
*568 FILLER_0_1_156
*569 FILLER_0_1_169
*570 FILLER_0_1_181
*571 FILLER_0_1_193
*572 FILLER_0_1_205
*573 FILLER_0_1_217
*574 FILLER_0_1_223
*575 FILLER_0_1_225
*576 FILLER_0_1_237
*577 FILLER_0_1_249
*578 FILLER_0_1_261
*579 FILLER_0_1_27
*580 FILLER_0_1_273
*581 FILLER_0_1_279
*582 FILLER_0_1_281
*583 FILLER_0_1_293
*584 FILLER_0_1_3
*585 FILLER_0_1_305
*586 FILLER_0_1_317
*587 FILLER_0_1_329
*588 FILLER_0_1_335
*589 FILLER_0_1_337
*590 FILLER_0_1_349
*591 FILLER_0_1_361
*592 FILLER_0_1_373
*593 FILLER_0_1_385
*594 FILLER_0_1_39
*595 FILLER_0_1_391
*596 FILLER_0_1_393
*597 FILLER_0_1_401
*598 FILLER_0_1_51
*599 FILLER_0_1_55
*600 FILLER_0_1_57
*601 FILLER_0_1_69
*602 FILLER_0_1_81
*603 FILLER_0_1_93
*604 FILLER_0_20_109
*605 FILLER_0_20_121
*606 FILLER_0_20_133
*607 FILLER_0_20_139
*608 FILLER_0_20_141
*609 FILLER_0_20_15
*610 FILLER_0_20_153
*611 FILLER_0_20_165
*612 FILLER_0_20_177
*613 FILLER_0_20_189
*614 FILLER_0_20_195
*615 FILLER_0_20_197
*616 FILLER_0_20_209
*617 FILLER_0_20_221
*618 FILLER_0_20_233
*619 FILLER_0_20_245
*620 FILLER_0_20_251
*621 FILLER_0_20_253
*622 FILLER_0_20_265
*623 FILLER_0_20_27
*624 FILLER_0_20_277
*625 FILLER_0_20_289
*626 FILLER_0_20_29
*627 FILLER_0_20_3
*628 FILLER_0_20_301
*629 FILLER_0_20_307
*630 FILLER_0_20_309
*631 FILLER_0_20_321
*632 FILLER_0_20_333
*633 FILLER_0_20_345
*634 FILLER_0_20_357
*635 FILLER_0_20_363
*636 FILLER_0_20_365
*637 FILLER_0_20_377
*638 FILLER_0_20_389
*639 FILLER_0_20_401
*640 FILLER_0_20_41
*641 FILLER_0_20_53
*642 FILLER_0_20_65
*643 FILLER_0_20_77
*644 FILLER_0_20_83
*645 FILLER_0_20_85
*646 FILLER_0_20_97
*647 FILLER_0_21_105
*648 FILLER_0_21_111
*649 FILLER_0_21_113
*650 FILLER_0_21_125
*651 FILLER_0_21_137
*652 FILLER_0_21_149
*653 FILLER_0_21_15
*654 FILLER_0_21_161
*655 FILLER_0_21_167
*656 FILLER_0_21_169
*657 FILLER_0_21_173
*658 FILLER_0_21_182
*659 FILLER_0_21_194
*660 FILLER_0_21_206
*661 FILLER_0_21_218
*662 FILLER_0_21_225
*663 FILLER_0_21_237
*664 FILLER_0_21_249
*665 FILLER_0_21_261
*666 FILLER_0_21_27
*667 FILLER_0_21_273
*668 FILLER_0_21_279
*669 FILLER_0_21_281
*670 FILLER_0_21_293
*671 FILLER_0_21_3
*672 FILLER_0_21_305
*673 FILLER_0_21_317
*674 FILLER_0_21_329
*675 FILLER_0_21_335
*676 FILLER_0_21_337
*677 FILLER_0_21_349
*678 FILLER_0_21_361
*679 FILLER_0_21_373
*680 FILLER_0_21_385
*681 FILLER_0_21_39
*682 FILLER_0_21_391
*683 FILLER_0_21_393
*684 FILLER_0_21_405
*685 FILLER_0_21_51
*686 FILLER_0_21_55
*687 FILLER_0_21_57
*688 FILLER_0_21_69
*689 FILLER_0_21_81
*690 FILLER_0_21_93
*691 FILLER_0_22_109
*692 FILLER_0_22_121
*693 FILLER_0_22_133
*694 FILLER_0_22_139
*695 FILLER_0_22_141
*696 FILLER_0_22_15
*697 FILLER_0_22_153
*698 FILLER_0_22_165
*699 FILLER_0_22_177
*700 FILLER_0_22_189
*701 FILLER_0_22_195
*702 FILLER_0_22_197
*703 FILLER_0_22_209
*704 FILLER_0_22_221
*705 FILLER_0_22_233
*706 FILLER_0_22_245
*707 FILLER_0_22_251
*708 FILLER_0_22_253
*709 FILLER_0_22_265
*710 FILLER_0_22_27
*711 FILLER_0_22_277
*712 FILLER_0_22_289
*713 FILLER_0_22_29
*714 FILLER_0_22_3
*715 FILLER_0_22_301
*716 FILLER_0_22_307
*717 FILLER_0_22_309
*718 FILLER_0_22_321
*719 FILLER_0_22_333
*720 FILLER_0_22_345
*721 FILLER_0_22_357
*722 FILLER_0_22_363
*723 FILLER_0_22_365
*724 FILLER_0_22_377
*725 FILLER_0_22_389
*726 FILLER_0_22_401
*727 FILLER_0_22_41
*728 FILLER_0_22_53
*729 FILLER_0_22_65
*730 FILLER_0_22_77
*731 FILLER_0_22_83
*732 FILLER_0_22_85
*733 FILLER_0_22_97
*734 FILLER_0_23_105
*735 FILLER_0_23_111
*736 FILLER_0_23_113
*737 FILLER_0_23_125
*738 FILLER_0_23_137
*739 FILLER_0_23_149
*740 FILLER_0_23_15
*741 FILLER_0_23_161
*742 FILLER_0_23_167
*743 FILLER_0_23_169
*744 FILLER_0_23_181
*745 FILLER_0_23_193
*746 FILLER_0_23_205
*747 FILLER_0_23_217
*748 FILLER_0_23_223
*749 FILLER_0_23_225
*750 FILLER_0_23_230
*751 FILLER_0_23_242
*752 FILLER_0_23_254
*753 FILLER_0_23_266
*754 FILLER_0_23_27
*755 FILLER_0_23_278
*756 FILLER_0_23_281
*757 FILLER_0_23_293
*758 FILLER_0_23_3
*759 FILLER_0_23_305
*760 FILLER_0_23_317
*761 FILLER_0_23_329
*762 FILLER_0_23_335
*763 FILLER_0_23_337
*764 FILLER_0_23_349
*765 FILLER_0_23_361
*766 FILLER_0_23_373
*767 FILLER_0_23_385
*768 FILLER_0_23_39
*769 FILLER_0_23_391
*770 FILLER_0_23_393
*771 FILLER_0_23_405
*772 FILLER_0_23_51
*773 FILLER_0_23_55
*774 FILLER_0_23_57
*775 FILLER_0_23_69
*776 FILLER_0_23_81
*777 FILLER_0_23_93
*778 FILLER_0_24_109
*779 FILLER_0_24_121
*780 FILLER_0_24_133
*781 FILLER_0_24_139
*782 FILLER_0_24_141
*783 FILLER_0_24_15
*784 FILLER_0_24_153
*785 FILLER_0_24_165
*786 FILLER_0_24_177
*787 FILLER_0_24_189
*788 FILLER_0_24_195
*789 FILLER_0_24_197
*790 FILLER_0_24_209
*791 FILLER_0_24_221
*792 FILLER_0_24_233
*793 FILLER_0_24_245
*794 FILLER_0_24_251
*795 FILLER_0_24_253
*796 FILLER_0_24_265
*797 FILLER_0_24_27
*798 FILLER_0_24_277
*799 FILLER_0_24_289
*800 FILLER_0_24_29
*801 FILLER_0_24_3
*802 FILLER_0_24_301
*803 FILLER_0_24_307
*804 FILLER_0_24_309
*805 FILLER_0_24_321
*806 FILLER_0_24_333
*807 FILLER_0_24_345
*808 FILLER_0_24_357
*809 FILLER_0_24_363
*810 FILLER_0_24_365
*811 FILLER_0_24_377
*812 FILLER_0_24_389
*813 FILLER_0_24_401
*814 FILLER_0_24_41
*815 FILLER_0_24_53
*816 FILLER_0_24_65
*817 FILLER_0_24_77
*818 FILLER_0_24_83
*819 FILLER_0_24_85
*820 FILLER_0_24_97
*821 FILLER_0_25_105
*822 FILLER_0_25_111
*823 FILLER_0_25_113
*824 FILLER_0_25_125
*825 FILLER_0_25_137
*826 FILLER_0_25_149
*827 FILLER_0_25_15
*828 FILLER_0_25_161
*829 FILLER_0_25_167
*830 FILLER_0_25_169
*831 FILLER_0_25_181
*832 FILLER_0_25_193
*833 FILLER_0_25_205
*834 FILLER_0_25_217
*835 FILLER_0_25_223
*836 FILLER_0_25_225
*837 FILLER_0_25_237
*838 FILLER_0_25_249
*839 FILLER_0_25_261
*840 FILLER_0_25_27
*841 FILLER_0_25_273
*842 FILLER_0_25_279
*843 FILLER_0_25_281
*844 FILLER_0_25_293
*845 FILLER_0_25_3
*846 FILLER_0_25_305
*847 FILLER_0_25_317
*848 FILLER_0_25_329
*849 FILLER_0_25_335
*850 FILLER_0_25_337
*851 FILLER_0_25_349
*852 FILLER_0_25_361
*853 FILLER_0_25_373
*854 FILLER_0_25_385
*855 FILLER_0_25_39
*856 FILLER_0_25_391
*857 FILLER_0_25_393
*858 FILLER_0_25_405
*859 FILLER_0_25_51
*860 FILLER_0_25_55
*861 FILLER_0_25_57
*862 FILLER_0_25_69
*863 FILLER_0_25_81
*864 FILLER_0_25_93
*865 FILLER_0_26_109
*866 FILLER_0_26_121
*867 FILLER_0_26_133
*868 FILLER_0_26_139
*869 FILLER_0_26_141
*870 FILLER_0_26_15
*871 FILLER_0_26_153
*872 FILLER_0_26_165
*873 FILLER_0_26_177
*874 FILLER_0_26_189
*875 FILLER_0_26_195
*876 FILLER_0_26_197
*877 FILLER_0_26_209
*878 FILLER_0_26_221
*879 FILLER_0_26_233
*880 FILLER_0_26_245
*881 FILLER_0_26_251
*882 FILLER_0_26_253
*883 FILLER_0_26_265
*884 FILLER_0_26_27
*885 FILLER_0_26_277
*886 FILLER_0_26_282
*887 FILLER_0_26_29
*888 FILLER_0_26_294
*889 FILLER_0_26_3
*890 FILLER_0_26_306
*891 FILLER_0_26_309
*892 FILLER_0_26_321
*893 FILLER_0_26_333
*894 FILLER_0_26_345
*895 FILLER_0_26_357
*896 FILLER_0_26_363
*897 FILLER_0_26_365
*898 FILLER_0_26_377
*899 FILLER_0_26_389
*900 FILLER_0_26_401
*901 FILLER_0_26_41
*902 FILLER_0_26_53
*903 FILLER_0_26_65
*904 FILLER_0_26_77
*905 FILLER_0_26_83
*906 FILLER_0_26_85
*907 FILLER_0_26_97
*908 FILLER_0_27_105
*909 FILLER_0_27_111
*910 FILLER_0_27_113
*911 FILLER_0_27_132
*912 FILLER_0_27_144
*913 FILLER_0_27_15
*914 FILLER_0_27_156
*915 FILLER_0_27_169
*916 FILLER_0_27_181
*917 FILLER_0_27_193
*918 FILLER_0_27_205
*919 FILLER_0_27_217
*920 FILLER_0_27_223
*921 FILLER_0_27_225
*922 FILLER_0_27_237
*923 FILLER_0_27_249
*924 FILLER_0_27_261
*925 FILLER_0_27_27
*926 FILLER_0_27_273
*927 FILLER_0_27_279
*928 FILLER_0_27_281
*929 FILLER_0_27_293
*930 FILLER_0_27_3
*931 FILLER_0_27_305
*932 FILLER_0_27_317
*933 FILLER_0_27_329
*934 FILLER_0_27_335
*935 FILLER_0_27_337
*936 FILLER_0_27_349
*937 FILLER_0_27_361
*938 FILLER_0_27_373
*939 FILLER_0_27_385
*940 FILLER_0_27_39
*941 FILLER_0_27_391
*942 FILLER_0_27_393
*943 FILLER_0_27_405
*944 FILLER_0_27_51
*945 FILLER_0_27_55
*946 FILLER_0_27_57
*947 FILLER_0_27_69
*948 FILLER_0_27_81
*949 FILLER_0_27_93
*950 FILLER_0_28_109
*951 FILLER_0_28_121
*952 FILLER_0_28_133
*953 FILLER_0_28_139
*954 FILLER_0_28_141
*955 FILLER_0_28_15
*956 FILLER_0_28_153
*957 FILLER_0_28_165
*958 FILLER_0_28_177
*959 FILLER_0_28_189
*960 FILLER_0_28_195
*961 FILLER_0_28_197
*962 FILLER_0_28_209
*963 FILLER_0_28_221
*964 FILLER_0_28_233
*965 FILLER_0_28_245
*966 FILLER_0_28_251
*967 FILLER_0_28_253
*968 FILLER_0_28_265
*969 FILLER_0_28_27
*970 FILLER_0_28_277
*971 FILLER_0_28_287
*972 FILLER_0_28_29
*973 FILLER_0_28_3
*974 FILLER_0_28_309
*975 FILLER_0_28_321
*976 FILLER_0_28_333
*977 FILLER_0_28_345
*978 FILLER_0_28_357
*979 FILLER_0_28_363
*980 FILLER_0_28_365
*981 FILLER_0_28_377
*982 FILLER_0_28_389
*983 FILLER_0_28_401
*984 FILLER_0_28_41
*985 FILLER_0_28_53
*986 FILLER_0_28_65
*987 FILLER_0_28_77
*988 FILLER_0_28_83
*989 FILLER_0_28_85
*990 FILLER_0_28_97
*991 FILLER_0_29_103
*992 FILLER_0_29_108
*993 FILLER_0_29_113
*994 FILLER_0_29_125
*995 FILLER_0_29_137
*996 FILLER_0_29_149
*997 FILLER_0_29_15
*998 FILLER_0_29_161
*999 FILLER_0_29_167
*1000 FILLER_0_29_169
*1001 FILLER_0_29_181
*1002 FILLER_0_29_193
*1003 FILLER_0_29_205
*1004 FILLER_0_29_217
*1005 FILLER_0_29_223
*1006 FILLER_0_29_225
*1007 FILLER_0_29_237
*1008 FILLER_0_29_249
*1009 FILLER_0_29_261
*1010 FILLER_0_29_27
*1011 FILLER_0_29_273
*1012 FILLER_0_29_279
*1013 FILLER_0_29_281
*1014 FILLER_0_29_293
*1015 FILLER_0_29_3
*1016 FILLER_0_29_305
*1017 FILLER_0_29_317
*1018 FILLER_0_29_329
*1019 FILLER_0_29_335
*1020 FILLER_0_29_337
*1021 FILLER_0_29_349
*1022 FILLER_0_29_361
*1023 FILLER_0_29_373
*1024 FILLER_0_29_385
*1025 FILLER_0_29_39
*1026 FILLER_0_29_391
*1027 FILLER_0_29_393
*1028 FILLER_0_29_405
*1029 FILLER_0_29_51
*1030 FILLER_0_29_55
*1031 FILLER_0_29_57
*1032 FILLER_0_29_69
*1033 FILLER_0_29_81
*1034 FILLER_0_29_93
*1035 FILLER_0_2_109
*1036 FILLER_0_2_121
*1037 FILLER_0_2_133
*1038 FILLER_0_2_139
*1039 FILLER_0_2_141
*1040 FILLER_0_2_15
*1041 FILLER_0_2_153
*1042 FILLER_0_2_165
*1043 FILLER_0_2_177
*1044 FILLER_0_2_189
*1045 FILLER_0_2_195
*1046 FILLER_0_2_197
*1047 FILLER_0_2_209
*1048 FILLER_0_2_221
*1049 FILLER_0_2_233
*1050 FILLER_0_2_245
*1051 FILLER_0_2_251
*1052 FILLER_0_2_253
*1053 FILLER_0_2_265
*1054 FILLER_0_2_27
*1055 FILLER_0_2_277
*1056 FILLER_0_2_289
*1057 FILLER_0_2_29
*1058 FILLER_0_2_3
*1059 FILLER_0_2_301
*1060 FILLER_0_2_307
*1061 FILLER_0_2_309
*1062 FILLER_0_2_321
*1063 FILLER_0_2_333
*1064 FILLER_0_2_345
*1065 FILLER_0_2_357
*1066 FILLER_0_2_363
*1067 FILLER_0_2_365
*1068 FILLER_0_2_377
*1069 FILLER_0_2_389
*1070 FILLER_0_2_401
*1071 FILLER_0_2_41
*1072 FILLER_0_2_53
*1073 FILLER_0_2_65
*1074 FILLER_0_2_77
*1075 FILLER_0_2_83
*1076 FILLER_0_2_85
*1077 FILLER_0_2_97
*1078 FILLER_0_30_109
*1079 FILLER_0_30_121
*1080 FILLER_0_30_133
*1081 FILLER_0_30_139
*1082 FILLER_0_30_141
*1083 FILLER_0_30_149
*1084 FILLER_0_30_15
*1085 FILLER_0_30_156
*1086 FILLER_0_30_168
*1087 FILLER_0_30_180
*1088 FILLER_0_30_192
*1089 FILLER_0_30_197
*1090 FILLER_0_30_209
*1091 FILLER_0_30_221
*1092 FILLER_0_30_233
*1093 FILLER_0_30_245
*1094 FILLER_0_30_251
*1095 FILLER_0_30_253
*1096 FILLER_0_30_265
*1097 FILLER_0_30_27
*1098 FILLER_0_30_277
*1099 FILLER_0_30_289
*1100 FILLER_0_30_29
*1101 FILLER_0_30_3
*1102 FILLER_0_30_301
*1103 FILLER_0_30_307
*1104 FILLER_0_30_309
*1105 FILLER_0_30_321
*1106 FILLER_0_30_333
*1107 FILLER_0_30_345
*1108 FILLER_0_30_357
*1109 FILLER_0_30_363
*1110 FILLER_0_30_365
*1111 FILLER_0_30_377
*1112 FILLER_0_30_389
*1113 FILLER_0_30_401
*1114 FILLER_0_30_41
*1115 FILLER_0_30_53
*1116 FILLER_0_30_65
*1117 FILLER_0_30_77
*1118 FILLER_0_30_83
*1119 FILLER_0_30_85
*1120 FILLER_0_30_97
*1121 FILLER_0_31_105
*1122 FILLER_0_31_111
*1123 FILLER_0_31_113
*1124 FILLER_0_31_125
*1125 FILLER_0_31_137
*1126 FILLER_0_31_149
*1127 FILLER_0_31_15
*1128 FILLER_0_31_161
*1129 FILLER_0_31_167
*1130 FILLER_0_31_169
*1131 FILLER_0_31_181
*1132 FILLER_0_31_193
*1133 FILLER_0_31_205
*1134 FILLER_0_31_217
*1135 FILLER_0_31_223
*1136 FILLER_0_31_225
*1137 FILLER_0_31_237
*1138 FILLER_0_31_249
*1139 FILLER_0_31_261
*1140 FILLER_0_31_27
*1141 FILLER_0_31_273
*1142 FILLER_0_31_279
*1143 FILLER_0_31_281
*1144 FILLER_0_31_293
*1145 FILLER_0_31_3
*1146 FILLER_0_31_305
*1147 FILLER_0_31_317
*1148 FILLER_0_31_329
*1149 FILLER_0_31_335
*1150 FILLER_0_31_337
*1151 FILLER_0_31_349
*1152 FILLER_0_31_361
*1153 FILLER_0_31_373
*1154 FILLER_0_31_385
*1155 FILLER_0_31_39
*1156 FILLER_0_31_391
*1157 FILLER_0_31_393
*1158 FILLER_0_31_405
*1159 FILLER_0_31_51
*1160 FILLER_0_31_55
*1161 FILLER_0_31_57
*1162 FILLER_0_31_69
*1163 FILLER_0_31_81
*1164 FILLER_0_31_93
*1165 FILLER_0_32_109
*1166 FILLER_0_32_121
*1167 FILLER_0_32_133
*1168 FILLER_0_32_139
*1169 FILLER_0_32_141
*1170 FILLER_0_32_15
*1171 FILLER_0_32_153
*1172 FILLER_0_32_165
*1173 FILLER_0_32_177
*1174 FILLER_0_32_189
*1175 FILLER_0_32_195
*1176 FILLER_0_32_197
*1177 FILLER_0_32_209
*1178 FILLER_0_32_221
*1179 FILLER_0_32_233
*1180 FILLER_0_32_245
*1181 FILLER_0_32_251
*1182 FILLER_0_32_253
*1183 FILLER_0_32_265
*1184 FILLER_0_32_27
*1185 FILLER_0_32_277
*1186 FILLER_0_32_289
*1187 FILLER_0_32_29
*1188 FILLER_0_32_3
*1189 FILLER_0_32_301
*1190 FILLER_0_32_307
*1191 FILLER_0_32_309
*1192 FILLER_0_32_321
*1193 FILLER_0_32_333
*1194 FILLER_0_32_345
*1195 FILLER_0_32_357
*1196 FILLER_0_32_363
*1197 FILLER_0_32_365
*1198 FILLER_0_32_377
*1199 FILLER_0_32_381
*1200 FILLER_0_32_384
*1201 FILLER_0_32_392
*1202 FILLER_0_32_404
*1203 FILLER_0_32_41
*1204 FILLER_0_32_53
*1205 FILLER_0_32_73
*1206 FILLER_0_32_81
*1207 FILLER_0_32_85
*1208 FILLER_0_32_97
*1209 FILLER_0_33_105
*1210 FILLER_0_33_111
*1211 FILLER_0_33_113
*1212 FILLER_0_33_125
*1213 FILLER_0_33_137
*1214 FILLER_0_33_149
*1215 FILLER_0_33_15
*1216 FILLER_0_33_161
*1217 FILLER_0_33_167
*1218 FILLER_0_33_169
*1219 FILLER_0_33_181
*1220 FILLER_0_33_193
*1221 FILLER_0_33_205
*1222 FILLER_0_33_217
*1223 FILLER_0_33_223
*1224 FILLER_0_33_225
*1225 FILLER_0_33_237
*1226 FILLER_0_33_249
*1227 FILLER_0_33_258
*1228 FILLER_0_33_27
*1229 FILLER_0_33_270
*1230 FILLER_0_33_278
*1231 FILLER_0_33_281
*1232 FILLER_0_33_293
*1233 FILLER_0_33_3
*1234 FILLER_0_33_305
*1235 FILLER_0_33_317
*1236 FILLER_0_33_329
*1237 FILLER_0_33_335
*1238 FILLER_0_33_337
*1239 FILLER_0_33_349
*1240 FILLER_0_33_361
*1241 FILLER_0_33_373
*1242 FILLER_0_33_385
*1243 FILLER_0_33_39
*1244 FILLER_0_33_391
*1245 FILLER_0_33_393
*1246 FILLER_0_33_401
*1247 FILLER_0_33_51
*1248 FILLER_0_33_55
*1249 FILLER_0_33_57
*1250 FILLER_0_33_69
*1251 FILLER_0_33_81
*1252 FILLER_0_33_93
*1253 FILLER_0_34_109
*1254 FILLER_0_34_129
*1255 FILLER_0_34_137
*1256 FILLER_0_34_141
*1257 FILLER_0_34_15
*1258 FILLER_0_34_153
*1259 FILLER_0_34_165
*1260 FILLER_0_34_177
*1261 FILLER_0_34_189
*1262 FILLER_0_34_195
*1263 FILLER_0_34_197
*1264 FILLER_0_34_209
*1265 FILLER_0_34_221
*1266 FILLER_0_34_233
*1267 FILLER_0_34_245
*1268 FILLER_0_34_251
*1269 FILLER_0_34_253
*1270 FILLER_0_34_265
*1271 FILLER_0_34_27
*1272 FILLER_0_34_277
*1273 FILLER_0_34_289
*1274 FILLER_0_34_29
*1275 FILLER_0_34_3
*1276 FILLER_0_34_301
*1277 FILLER_0_34_307
*1278 FILLER_0_34_309
*1279 FILLER_0_34_321
*1280 FILLER_0_34_333
*1281 FILLER_0_34_345
*1282 FILLER_0_34_357
*1283 FILLER_0_34_363
*1284 FILLER_0_34_365
*1285 FILLER_0_34_377
*1286 FILLER_0_34_389
*1287 FILLER_0_34_401
*1288 FILLER_0_34_41
*1289 FILLER_0_34_53
*1290 FILLER_0_34_65
*1291 FILLER_0_34_77
*1292 FILLER_0_34_83
*1293 FILLER_0_34_85
*1294 FILLER_0_34_97
*1295 FILLER_0_35_105
*1296 FILLER_0_35_111
*1297 FILLER_0_35_113
*1298 FILLER_0_35_125
*1299 FILLER_0_35_137
*1300 FILLER_0_35_149
*1301 FILLER_0_35_15
*1302 FILLER_0_35_161
*1303 FILLER_0_35_167
*1304 FILLER_0_35_169
*1305 FILLER_0_35_181
*1306 FILLER_0_35_193
*1307 FILLER_0_35_205
*1308 FILLER_0_35_217
*1309 FILLER_0_35_223
*1310 FILLER_0_35_225
*1311 FILLER_0_35_237
*1312 FILLER_0_35_249
*1313 FILLER_0_35_261
*1314 FILLER_0_35_27
*1315 FILLER_0_35_273
*1316 FILLER_0_35_278
*1317 FILLER_0_35_3
*1318 FILLER_0_35_301
*1319 FILLER_0_35_313
*1320 FILLER_0_35_325
*1321 FILLER_0_35_333
*1322 FILLER_0_35_337
*1323 FILLER_0_35_349
*1324 FILLER_0_35_361
*1325 FILLER_0_35_373
*1326 FILLER_0_35_385
*1327 FILLER_0_35_39
*1328 FILLER_0_35_391
*1329 FILLER_0_35_393
*1330 FILLER_0_35_405
*1331 FILLER_0_35_51
*1332 FILLER_0_35_55
*1333 FILLER_0_35_57
*1334 FILLER_0_35_69
*1335 FILLER_0_35_81
*1336 FILLER_0_35_93
*1337 FILLER_0_36_109
*1338 FILLER_0_36_121
*1339 FILLER_0_36_133
*1340 FILLER_0_36_139
*1341 FILLER_0_36_141
*1342 FILLER_0_36_15
*1343 FILLER_0_36_153
*1344 FILLER_0_36_165
*1345 FILLER_0_36_173
*1346 FILLER_0_36_195
*1347 FILLER_0_36_197
*1348 FILLER_0_36_209
*1349 FILLER_0_36_221
*1350 FILLER_0_36_244
*1351 FILLER_0_36_253
*1352 FILLER_0_36_265
*1353 FILLER_0_36_27
*1354 FILLER_0_36_277
*1355 FILLER_0_36_289
*1356 FILLER_0_36_29
*1357 FILLER_0_36_3
*1358 FILLER_0_36_301
*1359 FILLER_0_36_307
*1360 FILLER_0_36_309
*1361 FILLER_0_36_321
*1362 FILLER_0_36_333
*1363 FILLER_0_36_345
*1364 FILLER_0_36_357
*1365 FILLER_0_36_363
*1366 FILLER_0_36_365
*1367 FILLER_0_36_377
*1368 FILLER_0_36_389
*1369 FILLER_0_36_401
*1370 FILLER_0_36_41
*1371 FILLER_0_36_53
*1372 FILLER_0_36_65
*1373 FILLER_0_36_77
*1374 FILLER_0_36_83
*1375 FILLER_0_36_85
*1376 FILLER_0_36_97
*1377 FILLER_0_37_105
*1378 FILLER_0_37_111
*1379 FILLER_0_37_113
*1380 FILLER_0_37_125
*1381 FILLER_0_37_137
*1382 FILLER_0_37_149
*1383 FILLER_0_37_15
*1384 FILLER_0_37_161
*1385 FILLER_0_37_167
*1386 FILLER_0_37_169
*1387 FILLER_0_37_181
*1388 FILLER_0_37_193
*1389 FILLER_0_37_205
*1390 FILLER_0_37_217
*1391 FILLER_0_37_223
*1392 FILLER_0_37_225
*1393 FILLER_0_37_237
*1394 FILLER_0_37_249
*1395 FILLER_0_37_261
*1396 FILLER_0_37_27
*1397 FILLER_0_37_273
*1398 FILLER_0_37_279
*1399 FILLER_0_37_281
*1400 FILLER_0_37_293
*1401 FILLER_0_37_3
*1402 FILLER_0_37_305
*1403 FILLER_0_37_317
*1404 FILLER_0_37_329
*1405 FILLER_0_37_335
*1406 FILLER_0_37_337
*1407 FILLER_0_37_349
*1408 FILLER_0_37_361
*1409 FILLER_0_37_373
*1410 FILLER_0_37_385
*1411 FILLER_0_37_39
*1412 FILLER_0_37_391
*1413 FILLER_0_37_393
*1414 FILLER_0_37_399
*1415 FILLER_0_37_402
*1416 FILLER_0_37_51
*1417 FILLER_0_37_55
*1418 FILLER_0_37_57
*1419 FILLER_0_37_69
*1420 FILLER_0_37_81
*1421 FILLER_0_37_93
*1422 FILLER_0_38_109
*1423 FILLER_0_38_121
*1424 FILLER_0_38_133
*1425 FILLER_0_38_139
*1426 FILLER_0_38_141
*1427 FILLER_0_38_15
*1428 FILLER_0_38_153
*1429 FILLER_0_38_165
*1430 FILLER_0_38_173
*1431 FILLER_0_38_197
*1432 FILLER_0_38_209
*1433 FILLER_0_38_221
*1434 FILLER_0_38_233
*1435 FILLER_0_38_245
*1436 FILLER_0_38_251
*1437 FILLER_0_38_253
*1438 FILLER_0_38_265
*1439 FILLER_0_38_27
*1440 FILLER_0_38_277
*1441 FILLER_0_38_289
*1442 FILLER_0_38_29
*1443 FILLER_0_38_3
*1444 FILLER_0_38_301
*1445 FILLER_0_38_307